@<TRIPOS>MOLECULE
# University of Indonesia
# Herbal Database
# Metabolite Name:(+)-ar-Turmerone
M00011625.mol2
 32 32 0 0 0
SMALL
GASTEIGER
Energy = 0

@<TRIPOS>ATOM
      1 C          -3.9163   -0.5499   -0.0831 C.ar    1  LIG1       -0.0583
      2 C          -3.7023   -1.8746    0.0055 C.ar    1  LIG1       -0.0470
      3 C          -2.3132   -2.3783    0.1370 C.ar    1  LIG1       -0.0583
      4 C          -1.2786   -1.5213    0.1620 C.ar    1  LIG1       -0.0580
      5 C          -1.4998   -0.0443    0.0548 C.ar    1  LIG1       -0.0438
      6 C          -2.7758    0.3966   -0.0574 C.ar    1  LIG1       -0.0580
      7 C          -4.8293   -2.8259   -0.0252 C.3     1  LIG1       -0.0237
      8 C          -0.3510    0.9705    0.0627 C.3     1  LIG1       -0.0082
      9 C          -0.5181    1.9095    1.2714 C.3     1  LIG1       -0.0577
     10 C           1.0443    0.3714    0.0153 C.3     1  LIG1        0.0384
     11 C           1.5353   -0.4617   -1.1170 C.2     1  LIG1        0.1604
     12 C           2.9260   -0.9782   -1.1957 C.2     1  LIG1       -0.0196
     13 O           0.7617   -0.7757   -2.0154 O.2     1  LIG1       -0.2923
     14 C           4.0788   -0.3592   -0.8381 C.2     1  LIG1       -0.0656
     15 C           5.3569   -1.1048   -0.9135 C.3     1  LIG1       -0.0276
     16 C           4.1574    1.0561   -0.4013 C.3     1  LIG1       -0.0276
     17 H          -4.9270   -0.1558   -0.1810 H       1  LIG1        0.0620
     18 H          -2.1286   -3.4481    0.2205 H       1  LIG1        0.0620
     19 H          -0.2773   -1.9261    0.2839 H       1  LIG1        0.0620
     20 H          -2.9922    1.4581   -0.1606 H       1  LIG1        0.0620
     21 H          -5.8545   -2.4736   -0.1217 H       1  LIG1        0.0316
     22 H          -4.6472   -3.8957    0.0476 H       1  LIG1        0.0316
     23 H          -0.4207    1.5866   -0.8644 H       1  LIG1        0.0353
     24 H          -1.4642    2.4924    1.2166 H       1  LIG1        0.0236
     25 H           0.3199    2.6432    1.3009 H       1  LIG1        0.0236
     26 H          -0.5095    1.3248    2.2201 H       1  LIG1        0.0236
     27 H           1.7285    0.5760    0.8357 H       1  LIG1        0.0394
     28 H           2.9940   -1.9850   -1.6077 H       1  LIG1        0.0652
     29 H           5.3833   -2.1452   -1.2328 H       1  LIG1        0.0313
     30 H           6.2963   -0.6227   -0.6498 H       1  LIG1        0.0313
     31 H           3.3084    1.7294   -0.4730 H       1  LIG1        0.0313
     32 H           5.0943    1.4612   -0.0243 H       1  LIG1        0.0313
@<TRIPOS>BOND
     1     1     2   ar
     2     1     6   ar
     3     1    17    1
     4     2     3   ar
     5     2     7    1
     6     3     4   ar
     7     3    18    1
     8     4     5   ar
     9     4    19    1
    10     5     6   ar
    11     5     8    1
    12     6    20    1
    13     7    21    1
    14     7    22    1
    15     8     9    1
    16     8    10    1
    17     8    23    1
    18     9    24    1
    19     9    25    1
    20     9    26    1
    21    10    11    1
    22    10    27    1
    23    11    12    1
    24    11    13    2
    25    12    14    2
    26    12    28    1
    27    14    15    1
    28    14    16    1
    29    15    29    1
    30    15    30    1
    31    16    31    1
    32    16    32    1
