@<TRIPOS>MOLECULE
# University of Indonesia
# Herbal Database
# Metabolite Name:(+)-Fenchone
M00003045.mol2
 27 28 0 0 0
SMALL
GASTEIGER
Energy = 0

@<TRIPOS>ATOM
      1 C          -1.3675    1.3951    0.9886 C.3     1  LIG1       -0.0299
      2 C          -1.9131    0.1135    1.4280 C.3     1  LIG1       -0.0224
      3 C          -1.4981   -0.8446    0.3348 C.3     1  LIG1        0.0162
      4 C           0.0208   -1.1566    0.3066 C.2     1  LIG1        0.0253
      5 C           0.6653    0.2275   -0.0647 C.3     1  LIG1        0.0128
      6 C          -0.6134    1.0937   -0.2786 C.3     1  LIG1       -0.0258
      7 C          -1.6111    0.0957   -0.8622 C.3     1  LIG1       -0.0375
      8 C           1.5722    0.8297    1.0399 C.3     1  LIG1       -0.0536
      9 C           1.5160    0.1406   -1.3557 C.3     1  LIG1       -0.0536
     10 O           0.4209   -1.6461    1.4559 O.2     1  LIG1       -0.5238
     11 C          -2.4070   -2.0742    0.2340 C.3     1  LIG1       -0.0534
     12 H          -1.5511    2.3718    1.4276 H       1  LIG1        0.0310
     13 H          -2.5699   -0.0751    2.2733 H       1  LIG1        0.0316
     14 H           0.2265   -1.9164   -0.4858 H       1  LIG1        0.0912
     15 H          -0.4667    1.9934   -0.9194 H       1  LIG1        0.0313
     16 H          -2.6376    0.5162   -1.0220 H       1  LIG1        0.0277
     17 H          -1.2879   -0.3668   -1.8243 H       1  LIG1        0.0277
     18 H           2.4912    0.2139    1.1713 H       1  LIG1        0.0239
     19 H           1.8768    1.8672    0.7707 H       1  LIG1        0.0239
     20 H           1.0490    0.8665    2.0223 H       1  LIG1        0.0239
     21 H           2.3965   -0.5222   -1.1912 H       1  LIG1        0.0239
     22 H           1.8852    1.1503   -1.6489 H       1  LIG1        0.0239
     23 H           0.9396   -0.2731   -2.2121 H       1  LIG1        0.0239
     24 H           1.4287   -1.7233    1.6724 H       1  LIG1        0.2902
     25 H          -3.4750   -1.7661    0.1595 H       1  LIG1        0.0239
     26 H          -2.2804   -2.7101    1.1394 H       1  LIG1        0.0239
     27 H          -2.1494   -2.6782   -0.6657 H       1  LIG1        0.0239
@<TRIPOS>BOND
     1     1     2    1
     2     1     6    1
     3     1    12    1
     4     2     3    1
     5     2    13    1
     6     3     4    1
     7     3     7    1
     8     3    11    1
     9     4     5    1
    10     4    10    2
    11     4    14    1
    12     5     6    1
    13     5     8    1
    14     5     9    1
    15     6     7    1
    16     6    15    1
    17     7    16    1
    18     7    17    1
    19     8    18    1
    20     8    19    1
    21     8    20    1
    22     9    21    1
    23     9    22    1
    24     9    23    1
    25    10    24    1
    26    11    25    1
    27    11    26    1
    28    11    27    1
