@<TRIPOS>MOLECULE
# University of Indonesia
# Herbal Database
# Metabolite Name:(-)-Cycleapeltine
M00025605.mol2
 47 53 0 0 0
SMALL
GASTEIGER
Energy = 0

@<TRIPOS>ATOM
      1 C          -5.2060    2.5598   -0.6937 C.3     1  LIG1        0.0768
      2 N          -4.8209    1.7268   -1.7732 N.3     1  LIG1       -0.2732
      3 C          -3.9764    0.6839   -1.0354 C.3     1  LIG1        0.0523
      4 C          -3.0089    1.2246    0.1244 C.ar    1  LIG1        0.0214
      5 C          -3.5614    2.1069    1.0501 C.ar    1  LIG1       -0.0177
      6 C          -4.7473    2.7634    0.5994 C.3     1  LIG1        0.0436
      7 C          -0.9131    1.0463    1.5776 C.ar    1  LIG1        0.2630
      8 C          -1.6144    1.8825    2.6283 C.ar    1  LIG1        0.1801
      9 C          -2.7620    2.2893    2.2005 C.ar    1  LIG1        0.0359
     10 H          -4.7339    0.0794   -0.4748 H       1  LIG1        0.0523
     11 C          -5.4165    0.8237   -2.2926 C.3     1  LIG1        0.0896
     12 C          -3.4048   -0.2675   -2.0085 C.3     1  LIG1        0.0413
     13 C          -2.8249   -1.5427   -1.6300 C.ar    1  LIG1       -0.0207
     14 C          -2.7750   -2.1261   -0.4062 C.ar    1  LIG1       -0.0011
     15 C          -1.8649   -3.1805    0.0049 C.ar    1  LIG1        0.0372
     16 C          -0.9087   -3.8404   -0.6727 C.ar    1  LIG1        0.1454
     17 C          -1.0856   -3.2974   -2.0366 C.ar    1  LIG1        0.0372
     18 C          -1.8750   -2.3453   -2.4357 C.ar    1  LIG1       -0.0011
     19 O           0.0998   -4.7270   -0.1956 O.3     1  LIG1       -0.4504
     20 C           0.8971   -4.0266    0.7526 C.ar    1  LIG1        0.1786
     21 C           0.4871   -3.6625    2.2218 C.ar    1  LIG1        0.1729
     22 C           1.3354   -2.8256    2.8115 C.ar    1  LIG1        0.0397
     23 C           2.4696   -2.3010    2.1543 C.ar    1  LIG1       -0.0009
     24 C           2.9479   -2.4361    0.9504 C.ar    1  LIG1       -0.0176
     25 C           2.0700   -3.4699    0.3910 C.ar    1  LIG1        0.0364
     26 O          -0.5865   -4.2606    2.9163 O.3     1  LIG1       -0.4684
     27 C          -1.1692   -4.6961    3.8705 C.3     1  LIG1        0.2526
     28 O           0.2149    0.6202    1.8131 O.3     1  LIG1       -0.2800
     29 O          -1.1694    2.1135    3.9479 O.3     1  LIG1       -0.4681
     30 C          -0.6717    3.1749    3.6900 C.3     1  LIG1        0.2526
     31 C           3.7058   -1.4806    0.2066 C.3     1  LIG1        0.0413
     32 C           4.1293   -0.5028   -0.7982 C.3     1  LIG1        0.0494
     33 N           5.5722   -0.0425   -0.5370 N.3     1  LIG1       -0.2733
     34 C           5.4831    1.3651   -0.5247 C.3     1  LIG1        0.0768
     35 C           4.4928    2.3215   -0.6510 C.3     1  LIG1        0.0435
     36 C           3.1401    1.9457   -0.8505 C.ar    1  LIG1       -0.0206
     37 C           2.9515    0.5524   -0.9071 C.ar    1  LIG1       -0.0133
     38 C           1.9158    2.7374   -1.0304 C.ar    1  LIG1        0.0356
     39 C           0.6270    2.4443   -1.1875 C.ar    1  LIG1        0.1726
     40 C           0.3964    0.9148   -1.0520 C.ar    1  LIG1        0.1788
     41 C           1.5334    0.2364   -1.0564 C.ar    1  LIG1        0.0370
     42 O          -0.3812    3.4293   -1.2394 O.3     1  LIG1       -0.4684
     43 C           0.4576    4.0310   -0.6273 C.3     1  LIG1        0.2526
     44 O          -0.8302    0.2438   -0.7843 O.3     1  LIG1       -0.4474
     45 C          -1.5222    0.8233    0.3292 C.ar    1  LIG1        0.1837
     46 H           4.1318   -1.0519   -1.7667 H       1  LIG1        0.0522
     47 C           6.7435   -0.2503   -0.3788 C.3     1  LIG1        0.0896
@<TRIPOS>BOND
     1     1     2    1
     2     1     6    1
     3     2     3    1
     4     2    11    1
     5     3     4    1
     6     3    10    1
     7     3    12    1
     8     4     5   ar
     9     4    45   ar
    10     5     6    1
    11     5     9   ar
    12     7     8   ar
    13     7    28    1
    14     7    45   ar
    15     8     9   ar
    16     8    29    1
    17    12    13    1
    18    13    18   ar
    19    13    14   ar
    20    14    15   ar
    21    15    16   ar
    22    16    17   ar
    23    16    19    1
    24    17    18   ar
    25    19    20    1
    26    20    21   ar
    27    20    25   ar
    28    21    22   ar
    29    21    26    1
    30    22    23   ar
    31    23    24   ar
    32    24    25   ar
    33    24    31    1
    34    26    27    1
    35    29    30    1
    36    31    32    1
    37    32    37    1
    38    32    33    1
    39    32    46    1
    40    33    34    1
    41    33    47    1
    42    34    35    1
    43    35    36    1
    44    36    37   ar
    45    36    38   ar
    46    37    41   ar
    47    38    39   ar
    48    39    40   ar
    49    39    42    1
    50    40    41   ar
    51    40    44    1
    52    42    43    1
    53    44    45    1
