@<TRIPOS>MOLECULE
# University of Indonesia
# Herbal Database
# Metabolite Name:(+)-Syringaresinol
M00002631.mol2
 34 37 0 0 0
SMALL
GASTEIGER
Energy = 0

@<TRIPOS>ATOM
      1 C          -3.8031   -2.3586   -0.9615 C.ar    1  LIG1        0.1802
      2 C          -1.4773   -2.5450    0.1357 C.ar    1  LIG1        0.0044
      3 C          -2.7314   -2.1981    0.0129 C.ar    1  LIG1        0.0381
      4 C          -1.2574   -3.2793   -1.0817 C.ar    1  LIG1        0.0381
      5 C          -3.4154   -3.1171   -2.0669 C.ar    1  LIG1        0.2627
      6 C          -1.9544   -3.6318   -2.1459 C.ar    1  LIG1        0.1802
      7 O          -4.2183   -3.3802   -2.9582 O.3     1  LIG1       -0.2801
      8 O          -5.1151   -1.8811   -0.7454 O.3     1  LIG1       -0.4681
      9 O          -1.4392   -4.4968   -3.1352 O.3     1  LIG1       -0.4681
     10 C          -0.7492   -5.0621   -2.3324 C.3     1  LIG1        0.2526
     11 C          -6.0075   -1.5731   -0.0050 C.3     1  LIG1        0.2526
     12 C          -0.4747   -2.0184    1.1358 C.3     1  LIG1        0.0920
     13 C          -0.8170   -0.6095    1.7995 C.3     1  LIG1        0.0326
     14 O           0.8803   -2.0040    0.5777 O.3     1  LIG1       -0.3588
     15 C           0.4815    0.2449    1.8960 C.3     1  LIG1        0.0326
     16 C           1.1211   -0.8016    1.1535 C.3     1  LIG1        0.1400
     17 C           0.2545    1.6380    1.1579 C.3     1  LIG1        0.0920
     18 C          -1.3239    0.4211    0.9422 C.3     1  LIG1        0.1400
     19 O          -0.9881    1.6069    0.3831 O.3     1  LIG1       -0.3588
     20 H          -0.4746   -2.7705    1.9619 H       1  LIG1        0.0651
     21 H          -1.4012   -0.6632    2.7462 H       1  LIG1        0.0364
     22 H           0.9079    0.3179    2.9225 H       1  LIG1        0.0364
     23 H           0.0826    2.3738    1.9828 H       1  LIG1        0.0651
     24 C           1.3364    2.2719    0.3269 C.ar    1  LIG1        0.0044
     25 C           2.5790    4.4598   -0.2767 C.ar    1  LIG1        0.1802
     26 C           1.6287    3.6749    0.1816 C.ar    1  LIG1        0.0381
     27 C           3.7548    3.6366   -0.8301 C.ar    1  LIG1        0.2627
     28 C           2.4256    1.7472   -0.1952 C.ar    1  LIG1        0.0381
     29 C           3.6706    2.2473   -0.7940 C.ar    1  LIG1        0.1802
     30 O           4.7489    4.1964   -1.2853 O.3     1  LIG1       -0.2801
     31 O           2.4338    5.8615   -0.3565 O.3     1  LIG1       -0.4681
     32 O           4.7180    1.3890   -1.1970 O.3     1  LIG1       -0.4681
     33 C           5.2900    0.3502   -1.0129 C.3     1  LIG1        0.2526
     34 C           1.3483    6.3559   -0.4892 C.3     1  LIG1        0.2526
@<TRIPOS>BOND
     1     1     5   ar
     2     1     3   ar
     3     1     8    1
     4     2     3   ar
     5     2     4   ar
     6     2    12    1
     7     4     6   ar
     8     5     6   ar
     9     5     7    1
    10     6     9    1
    11     8    11    1
    12     9    10    1
    13    12    13    1
    14    12    14    1
    15    12    20    1
    16    13    15    1
    17    13    18    1
    18    13    21    1
    19    14    16    1
    20    15    16    1
    21    15    17    1
    22    15    22    1
    23    17    19    1
    24    17    23    1
    25    17    24    1
    26    18    19    1
    27    24    26   ar
    28    24    28   ar
    29    25    26   ar
    30    25    27   ar
    31    25    31    1
    32    27    29   ar
    33    27    30    1
    34    28    29   ar
    35    29    32    1
    36    31    34    1
    37    32    33    1
