@<TRIPOS>MOLECULE
# University of Indonesia
# Herbal Database
# Metabolite Name:(-)-Curine
M00025602.mol2
 46 52 0 0 0
SMALL
GASTEIGER
Energy = 0

@<TRIPOS>ATOM
      1 C          -2.0111    5.2825    0.4346 C.ar    1  LIG1        0.1726
      2 C          -0.2535    3.6956    0.1814 C.ar    1  LIG1        0.0370
      3 C           0.8703    4.6525    0.2103 C.ar    1  LIG1       -0.0133
      4 C           0.4208    5.9812    0.2467 C.ar    1  LIG1       -0.0206
      5 C          -1.0186    6.1514    0.3533 C.ar    1  LIG1        0.0356
      6 C           2.4204    4.2798    0.2669 C.3     1  LIG1        0.0494
      7 N           3.4986    5.3734    0.3205 N.3     1  LIG1       -0.2733
      8 C           2.7719    6.5752    0.3146 C.3     1  LIG1        0.0768
      9 C           1.4496    6.9510    0.2803 C.3     1  LIG1        0.0435
     10 O          -3.3271    5.6918    0.7372 O.3     1  LIG1       -0.4684
     11 C          -3.5258    4.6587    1.3146 C.3     1  LIG1        0.2526
     12 C           2.6203    5.0484   -0.4296 C.3     1  LIG1        0.0896
     13 H           2.5312    3.7138    1.2207 H       1  LIG1        0.0522
     14 C           2.7940    3.3995   -0.8571 C.3     1  LIG1        0.0412
     15 C           2.7034    1.9672   -0.6983 C.ar    1  LIG1       -0.0207
     16 C           1.9660    1.0394   -1.5542 C.ar    1  LIG1       -0.0011
     17 C           1.6077   -0.1855   -1.3286 C.ar    1  LIG1        0.0372
     18 C           1.8676   -0.8940   -0.0617 C.ar    1  LIG1        0.1454
     19 C           2.6675   -0.1169    0.6703 C.ar    1  LIG1        0.0372
     20 C           3.0648    1.2391    0.3683 C.ar    1  LIG1       -0.0011
     21 O           0.9359   -1.7870    0.4975 O.3     1  LIG1       -0.4504
     22 C          -0.0494   -4.0386    0.9956 C.ar    1  LIG1        0.0250
     23 C           0.0736   -5.4256    0.9515 C.ar    1  LIG1       -0.0174
     24 C           1.2967   -5.8574    0.3899 C.ar    1  LIG1        0.0359
     25 C           2.3723   -5.3530   -0.1104 C.ar    1  LIG1        0.1801
     26 C           2.2711   -3.8427   -0.1008 C.ar    1  LIG1        0.2630
     27 C           1.1352   -3.1999    0.4369 C.ar    1  LIG1        0.1839
     28 C          -1.4020   -3.4080    1.5991 C.3     1  LIG1        0.0711
     29 N          -2.5768   -4.2202    2.1500 N.3     1  LIG1       -0.2698
     30 C          -2.1307   -5.5367    1.9639 C.3     1  LIG1        0.0770
     31 C          -1.0175   -6.1704    1.4611 C.3     1  LIG1        0.0436
     32 O           3.2085   -3.2023   -0.5683 O.3     1  LIG1       -0.2800
     33 O           3.3879   -6.1347   -0.7026 O.3     1  LIG1       -0.4681
     34 C           4.1168   -5.8832   -1.6222 C.3     1  LIG1        0.2526
     35 C          -0.5826   -2.9448    2.3433 C.3     1  LIG1        0.0210
     36 C          -1.6071   -1.9552    1.7508 C.3     1  LIG1        0.0454
     37 C          -3.6468   -3.9995    1.6534 C.3     1  LIG1        0.0898
     38 C          -2.1220    1.4629   -0.0278 C.ar    1  LIG1        0.1837
     39 C          -2.1430    0.4273    0.8401 C.ar    1  LIG1        0.0366
     40 C          -1.8626   -1.0194    0.6769 C.ar    1  LIG1       -0.0173
     41 C          -1.6615   -1.2509   -0.6096 C.ar    1  LIG1       -0.0007
     42 C          -1.5730   -0.2379   -1.5858 C.ar    1  LIG1        0.0449
     43 C          -1.7085    1.0666   -1.4813 C.ar    1  LIG1        0.2298
     44 O          -1.5455    1.8337   -2.4239 O.3     1  LIG1       -0.2833
     45 O          -2.5586    2.7686    0.3332 O.3     1  LIG1       -0.4472
     46 C          -1.5823    3.8145    0.3014 C.ar    1  LIG1        0.1788
@<TRIPOS>BOND
     1     1     5   ar
     2     1    10    1
     3     1    46   ar
     4     2     3   ar
     5     2    46   ar
     6     3     4   ar
     7     3     6    1
     8     4     5   ar
     9     4     9    1
    10     6     7    1
    11     6    13    1
    12     6    14    1
    13     7     8    1
    14     7    12    1
    15     8     9    1
    16    10    11    1
    17    14    15    1
    18    15    20   ar
    19    15    16   ar
    20    16    17   ar
    21    17    18   ar
    22    18    19   ar
    23    18    21    1
    24    19    20   ar
    25    21    27    1
    26    22    23   ar
    27    22    27   ar
    28    22    28    1
    29    23    24   ar
    30    23    31    1
    31    24    25   ar
    32    25    26   ar
    33    25    33    1
    34    26    27   ar
    35    26    32    1
    36    28    29    1
    37    28    35    1
    38    28    36    1
    39    29    30    1
    40    29    37    1
    41    30    31    1
    42    33    34    1
    43    36    40    1
    44    38    39   ar
    45    38    43   ar
    46    38    45    1
    47    39    40   ar
    48    40    41   ar
    49    41    42   ar
    50    42    43   ar
    51    43    44    1
    52    45    46    1
