@<TRIPOS>MOLECULE
# University of Indonesia
# Herbal Database
# Metabolite Name:(+)-(1S,10R)-1,10-Dimethylbicyclo[4.4.0]dec-6-en-3-one
M00017463.mol2
 26 27 0 0 0
SMALL
GASTEIGER
Energy = 0

@<TRIPOS>ATOM
      1 C          -2.1821    0.0822   -1.0762 C.3     1  LIG1       -0.0272
      2 C          -2.1807   -1.3842   -1.1847 C.3     1  LIG1       -0.0127
      3 C          -0.9662   -2.1584   -0.8494 C.2     1  LIG1       -0.0800
      4 C           0.1320   -1.5737   -0.3200 C.2     1  LIG1       -0.0620
      5 C           0.2700   -0.0397   -0.1808 C.3     1  LIG1        0.0022
      6 C          -0.8618    0.7766   -0.8981 C.3     1  LIG1       -0.0304
      7 C           1.2613   -2.4263    0.1747 C.3     1  LIG1       -0.0020
      8 C           2.6176   -1.8313    0.2816 C.3     1  LIG1        0.0349
      9 C           2.8347   -0.4623   -0.2388 C.2     1  LIG1        0.1422
     10 C           1.6560    0.2871   -0.7306 C.3     1  LIG1        0.0374
     11 C           0.2635    0.2622    1.3449 C.3     1  LIG1       -0.0549
     12 C          -1.0529    2.2328   -0.4404 C.3     1  LIG1       -0.0613
     13 O           3.9612    0.0132   -0.3159 O.2     1  LIG1       -0.2967
     14 H          -3.1270    0.6214   -1.0435 H       1  LIG1        0.0312
     15 H          -3.0879   -1.9043   -1.4837 H       1  LIG1        0.0352
     16 H          -1.0026   -3.2389   -0.9773 H       1  LIG1        0.0575
     17 H          -0.5374    0.8667   -1.9622 H       1  LIG1        0.0310
     18 H           1.1109   -3.4766    0.4161 H       1  LIG1        0.0359
     19 H           3.4439   -2.4032    0.6966 H       1  LIG1        0.0390
     20 H           1.7975    1.0431   -1.5000 H       1  LIG1        0.0393
     21 H          -0.7529    0.0777    1.7631 H       1  LIG1        0.0238
     22 H           0.5397    1.3219    1.5463 H       1  LIG1        0.0238
     23 H           0.9794   -0.3669    1.9197 H       1  LIG1        0.0238
     24 H          -1.5354    2.2712    0.5626 H       1  LIG1        0.0233
     25 H          -0.0700    2.7547   -0.3931 H       1  LIG1        0.0233
     26 H          -1.6995    2.7846   -1.1614 H       1  LIG1        0.0233
@<TRIPOS>BOND
     1     1     2    1
     2     1     6    1
     3     1    14    1
     4     2     3    1
     5     2    15    1
     6     3     4    2
     7     3    16    1
     8     4     5    1
     9     4     7    1
    10     5     6    1
    11     5    10    1
    12     5    11    1
    13     6    12    1
    14     6    17    1
    15     7     8    1
    16     7    18    1
    17     8     9    1
    18     8    19    1
    19     9    10    1
    20     9    13    2
    21    10    20    1
    22    11    21    1
    23    11    22    1
    24    11    23    1
    25    12    24    1
    26    12    25    1
    27    12    26    1
