@<TRIPOS>MOLECULE
# University of Indonesia
# Herbal Database
# Metabolite Name:(+)-7-Hydroxycostol
M00012722.mol2
 18 19 0 0 0
SMALL
GASTEIGER
Energy = 0

@<TRIPOS>ATOM
      1 C          -2.8518    0.7251   -0.8443 C.3     1  LIG1        0.0217
      2 C          -2.9306   -0.5517   -1.3597 C.3     1  LIG1        0.0043
      3 C          -2.3092   -1.5749   -0.6863 C.3     1  LIG1        0.0003
      4 C          -1.5272   -1.5976    0.5485 C.3     1  LIG1       -0.0000
      5 C          -1.2689    0.0125    0.9565 C.3     1  LIG1       -0.0011
      6 C          -2.1041    1.1726    0.3142 C.2     1  LIG1       -0.0484
      7 C          -0.2149   -2.1693    0.2487 C.3     1  LIG1        0.0029
      8 C           1.0260   -1.5399    0.1446 C.3     1  LIG1        0.0344
      9 C           1.5009   -0.1662    0.2656 C.3     1  LIG1        0.1440
     10 C           0.1804    0.3586    0.7093 C.3     1  LIG1        0.0342
     11 C          -2.7940    2.0937   -0.0226 C.2     1  LIG1       -0.0095
     12 H          -1.4646    0.0708    2.0507 H       1  LIG1        0.0359
     13 C          -2.0983   -2.6459    0.4401 C.3     1  LIG1        0.0000
     14 C           1.9234    0.2858   -1.0906 C.2     1  LIG1        0.0155
     15 C           1.6456    0.4589   -2.2452 C.2     1  LIG1       -0.0042
     16 C           3.3055    0.5160   -1.4060 C.3     1  LIG1        0.2067
     17 O           4.6174    0.6488   -1.7154 O.3     1  LIG1       -0.2154
     18 O           2.4777   -0.0628    1.2739 O.3     1  LIG1       -0.2214
@<TRIPOS>BOND
     1     1     2    1
     2     1     6    1
     3     2     3    1
     4     3     4    1
     5     4     5    1
     6     4     7    1
     7     4    13    1
     8     5     6    1
     9     5    10    1
    10     5    12    1
    11     6    11    2
    12     7     8    1
    13     8     9    1
    14     9    10    1
    15     9    14    1
    16     9    18    1
    17    14    15    2
    18    14    16    1
    19    16    17    1
