@<TRIPOS>MOLECULE
# University of Indonesia
# Herbal Database
# Metabolite Name:(-)-Kobusone
M00012492.mol2
 18 20 0 0 0
SMALL
GASTEIGER
Energy = 0

@<TRIPOS>ATOM
      1 C          -1.9604   -0.0354   -0.8586 C.3     1  LIG1       -0.0032
      2 C          -1.6987   -1.3410   -0.3503 C.3     1  LIG1        0.0024
      3 C          -2.6385    0.8116   -1.3702 C.3     1  LIG1       -0.0003
      4 C          -2.2566    0.7143   -1.7510 C.3     1  LIG1       -0.0003
      5 H          -1.9097    0.9741    1.1619 H       1  LIG1        0.0319
      6 H          -2.0626   -1.4066    1.6435 H       1  LIG1        0.0387
      7 C           1.3457    1.3051   -0.2041 C.3     1  LIG1        0.0293
      8 C          -0.0054   -1.9947    1.4347 C.2     1  LIG1        0.1460
      9 C           0.0249    0.9664    0.1893 C.3     1  LIG1       -0.0013
     10 C          -1.2042   -1.1857    0.9714 C.3     1  LIG1        0.0294
     11 C          -1.2755    0.3335    0.5075 C.3     1  LIG1       -0.0162
     12 C           1.2620   -1.8315    0.7809 C.3     1  LIG1        0.0667
     13 C           2.3869   -1.2090    0.2127 C.3     1  LIG1        0.0397
     14 C           3.0984   -0.0889   -0.2397 C.3     1  LIG1        0.1401
     15 C           2.7647    1.2287   -0.6138 C.3     1  LIG1        0.1176
     16 O          -0.0700   -2.7195    2.4215 O.2     1  LIG1       -0.2964
     17 C           2.0186    1.1734   -1.5491 C.3     1  LIG1        0.0321
     18 O           3.7079    0.9263    0.4736 O.3     1  LIG1       -0.3562
@<TRIPOS>BOND
     1     1     2    1
     2     1     3    1
     3     1     4    1
     4     1    11    1
     5     2    10    1
     6     5    11    1
     7     6    10    1
     8     7     9    1
     9     7    15    1
    10     8    10    1
    11     8    12    1
    12     8    16    2
    13     9    11    1
    14    10    11    1
    15    12    13    1
    16    13    14    1
    17    14    15    1
    18    14    18    1
    19    15    17    1
    20    15    18    1
