@<TRIPOS>MOLECULE
# University of Indonesia
# Herbal Database
# Metabolite Name:(4aS-trans)-4,4a,5,6,7,8-hexahydro-4a,8-dimethyl-2(3H)-Naphthalenone
M00013225.mol2
 28 29 0 0 0
SMALL
GASTEIGER
Energy = 0

@<TRIPOS>ATOM
      1 C          -2.3543    1.1363   -0.8775 C.3     1  LIG1       -0.0054
      2 C          -2.6501   -0.3014   -0.6487 C.2     1  LIG1       -0.0505
      3 C          -1.5217   -1.2262   -0.2984 C.2     1  LIG1       -0.0588
      4 C          -0.3136   -0.7556    0.1243 C.2     1  LIG1       -0.0597
      5 C          -0.0381    0.7617    0.1235 C.3     1  LIG1       -0.0035
      6 C          -0.9318    1.4898   -0.8661 C.3     1  LIG1       -0.0201
      7 C           0.7786   -1.7190    0.6224 C.3     1  LIG1       -0.0185
      8 C           1.9529   -0.9417    1.1953 C.3     1  LIG1       -0.0277
      9 C           2.4707    0.2135    0.4404 C.3     1  LIG1       -0.0301
     10 C           1.4218    0.9575   -0.2976 C.3     1  LIG1       -0.0244
     11 C          -3.9041   -0.7632   -0.7608 C.2     1  LIG1       -0.0952
     12 C          -0.3024    1.3026    1.5454 C.3     1  LIG1       -0.0553
     13 C           1.2521   -2.5914   -0.5507 C.3     1  LIG1       -0.0584
     14 H          -3.1190    1.8605   -1.1485 H       1  LIG1        0.0358
     15 H          -1.7050   -2.2995   -0.3115 H       1  LIG1        0.0620
     16 H          -0.5490    2.1548   -1.6371 H       1  LIG1        0.0318
     17 H           0.4121   -2.3854    1.4373 H       1  LIG1        0.0346
     18 H           2.3359   -1.1490    2.1905 H       1  LIG1        0.0312
     19 H           3.5156    0.5131    0.4517 H       1  LIG1        0.0310
     20 H           1.7103    1.5809   -1.1414 H       1  LIG1        0.0315
     21 H          -4.1273   -1.8158   -0.5947 H       1  LIG1        0.0538
     22 H          -4.7240   -0.0940   -1.0157 H       1  LIG1        0.0538
     23 H           0.3215    0.8009    2.3170 H       1  LIG1        0.0238
     24 H          -0.0807    2.3937    1.5830 H       1  LIG1        0.0238
     25 H          -1.3705    1.1556    1.8279 H       1  LIG1        0.0238
     26 H           2.0896   -3.2496   -0.2247 H       1  LIG1        0.0236
     27 H           0.4282   -3.2446   -0.9160 H       1  LIG1        0.0236
     28 H           1.6079   -1.9600   -1.3979 H       1  LIG1        0.0236
@<TRIPOS>BOND
     1     1     2    1
     2     1     6    1
     3     1    14    1
     4     2     3    1
     5     2    11    2
     6     3     4    2
     7     3    15    1
     8     4     5    1
     9     4     7    1
    10     5     6    1
    11     5    10    1
    12     5    12    1
    13     6    16    1
    14     7     8    1
    15     7    13    1
    16     7    17    1
    17     8     9    1
    18     8    18    1
    19     9    10    1
    20     9    19    1
    21    10    20    1
    22    11    21    1
    23    11    22    1
    24    12    23    1
    25    12    24    1
    26    12    25    1
    27    13    26    1
    28    13    27    1
    29    13    28    1
