@<TRIPOS>MOLECULE
# University of Indonesia
# Herbal Database
# Metabolite Name:(+)-Marmesin
M00000584.mol2
 28 30 0 0 0
SMALL
GASTEIGER
Energy = 0

@<TRIPOS>ATOM
      1 C          -0.1061    0.5000    0.4453 C.ar    1  LIG1        0.0025
      2 C          -0.1221   -0.9476    0.5112 C.ar    1  LIG1        0.1282
      3 C           1.0107   -1.6524    0.3700 C.ar    1  LIG1        0.0234
      4 C           2.2761   -0.9074    0.1212 C.ar    1  LIG1        0.1425
      5 C           2.2840    0.4589    0.1137 C.ar    1  LIG1        0.0181
      6 C           1.0093    1.2182    0.2545 C.ar    1  LIG1       -0.0440
      7 O           3.4871   -1.6096   -0.1594 O.2     1  LIG1       -0.4220
      8 C           4.5189   -1.0456    0.6435 C.ar    1  LIG1        0.3372
      9 C           4.7118    0.4202    0.4961 C.ar    1  LIG1        0.0236
     10 C           3.6113    1.1446    0.1744 C.ar    1  LIG1       -0.0443
     11 O           5.1961   -1.7307    1.4000 O.2     1  LIG1       -0.2452
     12 C          -1.4735    0.9068    0.6228 C.3     1  LIG1        0.0378
     13 O          -1.4077   -1.5076    0.7122 O.3     1  LIG1       -0.4848
     14 C          -2.3026   -0.3445    0.8014 C.3     1  LIG1        0.1395
     15 C          -3.4670   -0.4317   -0.2081 C.3     1  LIG1        0.1417
     16 C          -4.3000   -1.6561    0.0686 C.3     1  LIG1       -0.0144
     17 O          -4.3635    0.6566   -0.2137 O.3     1  LIG1       -0.2237
     18 C          -2.9766   -0.5508   -1.6295 C.3     1  LIG1       -0.0144
     19 H           0.9983   -2.7392    0.4075 H       1  LIG1        0.0691
     20 H           0.9823    2.3061    0.2294 H       1  LIG1        0.0629
     21 H           5.6777    0.8901    0.6635 H       1  LIG1        0.0689
     22 H           3.6839    2.2214    0.0393 H       1  LIG1        0.0627
     23 H          -1.8467    1.9271    0.5722 H       1  LIG1        0.0394
     24 H          -2.7298   -0.3086    1.8305 H       1  LIG1        0.0769
     25 H          -5.3613   -1.5707    0.2939 H       1  LIG1        0.0296
     26 H          -3.8461   -2.6453    0.0473 H       1  LIG1        0.0296
     27 H          -2.3877    0.2556   -2.0603 H       1  LIG1        0.0296
     28 H          -3.1925   -1.4206   -2.2483 H       1  LIG1        0.0296
@<TRIPOS>BOND
     1     1     2   ar
     2     1     6   ar
     3     1    12    1
     4     2     3   ar
     5     2    13    1
     6     3     4   ar
     7     3    19    1
     8     4     5   ar
     9     4     7   ar
    10     5     6   ar
    11     5    10   ar
    12     6    20    1
    13     7     8   ar
    14     8     9   ar
    15     8    11    2
    16     9    10   ar
    17     9    21    1
    18    10    22    1
    19    12    14    1
    20    12    23    1
    21    13    14    1
    22    14    15    1
    23    14    24    1
    24    15    16    1
    25    15    17    1
    26    15    18    1
    27    16    25    1
    28    16    26    1
    29    18    27    1
    30    18    28    1
