@<TRIPOS>MOLECULE
# University of Indonesia
# Herbal Database
# Metabolite Name:(+)-Thalrugosine
M00025276.mol2
 47 53 0 0 0
SMALL
GASTEIGER
Energy = 0

@<TRIPOS>ATOM
      1 C          -5.7856   -0.2989    0.9916 C.3     1  LIG1        0.0436
      2 C          -5.6249   -1.5786    0.4770 C.3     1  LIG1        0.0768
      3 N          -4.7088   -2.2195   -0.2639 N.3     1  LIG1       -0.2732
      4 C          -3.8313   -1.0740   -0.8083 C.3     1  LIG1        0.0523
      5 C          -3.4127    0.2240    0.1533 C.ar    1  LIG1        0.0214
      6 C          -4.7809    0.6827    0.7823 C.ar    1  LIG1       -0.0177
      7 C          -2.2823    1.0855    0.6787 C.ar    1  LIG1        0.1837
      8 C          -2.7773    2.4212    1.2469 C.ar    1  LIG1        0.2630
      9 C          -3.8784    2.9041    0.7112 C.ar    1  LIG1        0.1801
     10 C          -4.8420    1.9468    0.9834 C.ar    1  LIG1        0.0359
     11 O          -3.9599    3.3702   -0.5981 O.3     1  LIG1       -0.4681
     12 C          -3.5347    3.5406   -1.7100 C.3     1  LIG1        0.2526
     13 O          -2.3166    2.9041    2.2765 O.3     1  LIG1       -0.2800
     14 C          -5.4094   -3.1079    0.1404 C.3     1  LIG1        0.0896
     15 C          -3.0631   -1.6719   -1.8411 C.3     1  LIG1        0.0414
     16 H          -4.5352   -0.5089   -1.5090 H       1  LIG1        0.0523
     17 C          -0.7074   -0.9746   -1.5909 C.ar    1  LIG1       -0.0009
     18 C          -1.7576   -1.9560   -1.5414 C.ar    1  LIG1       -0.0177
     19 C          -1.3767   -3.0259   -0.8699 C.ar    1  LIG1        0.0358
     20 C          -0.1023   -3.2582   -0.3608 C.ar    1  LIG1        0.1726
     21 C           0.4927   -2.1504    0.1569 C.ar    1  LIG1        0.1789
     22 C           0.3016   -1.0673   -0.8191 C.ar    1  LIG1        0.0403
     23 O          -0.8243    0.8877    0.8351 O.3     1  LIG1       -0.4474
     24 C           0.3377    1.8135    0.6043 C.ar    1  LIG1        0.1788
     25 C           1.4118    1.3997   -0.1172 C.ar    1  LIG1        0.0370
     26 C           2.9094    1.5224   -0.0129 C.ar    1  LIG1       -0.0133
     27 C           3.2561    2.5890    0.8425 C.ar    1  LIG1       -0.0206
     28 C           2.1126    3.3076    1.3846 C.ar    1  LIG1        0.0356
     29 C           0.7899    3.1637    1.3703 C.ar    1  LIG1        0.1726
     30 O           0.0043    4.1969    1.9531 O.3     1  LIG1       -0.4684
     31 C           0.1525    5.3534    2.2740 C.3     1  LIG1        0.2526
     32 C           4.0684    0.6331   -0.7471 C.3     1  LIG1        0.0494
     33 N           5.5527    0.7979   -0.3736 N.3     1  LIG1       -0.2733
     34 C           5.5652    1.9128    0.4753 C.3     1  LIG1        0.0768
     35 C           4.6490    2.7694    1.0406 C.3     1  LIG1        0.0435
     36 C           6.4992    0.1319   -0.0399 C.3     1  LIG1        0.0896
     37 H           3.9698    0.9487   -1.8047 H       1  LIG1        0.0522
     38 C           3.9127   -0.8282   -0.8974 C.3     1  LIG1        0.0413
     39 C           2.9932   -1.6369    1.2441 C.ar    1  LIG1        0.0333
     40 C           2.0291   -2.3648    1.7491 C.ar    1  LIG1        0.1451
     41 C           2.4967   -3.7286    1.4982 C.ar    1  LIG1        0.0375
     42 C           3.3876   -4.1681    0.6733 C.ar    1  LIG1        0.0028
     43 C           4.0740   -3.1050    0.0161 C.ar    1  LIG1       -0.0040
     44 C           3.9051   -1.7939    0.1370 C.ar    1  LIG1       -0.0178
     45 O           0.7241   -1.9502    1.5558 O.3     1  LIG1       -0.4504
     46 O           0.5840   -4.1317   -1.1891 O.3     1  LIG1       -0.4684
     47 C           1.3126   -4.6136   -2.0103 C.3     1  LIG1        0.2526
@<TRIPOS>BOND
     1     1     2    1
     2     1     6    1
     3     2     3    1
     4     3     4    1
     5     3    14    1
     6     4     5    1
     7     4    15    1
     8     4    16    1
     9     5     6   ar
    10     5     7   ar
    11     6    10   ar
    12     7     8   ar
    13     7    23    1
    14     8     9   ar
    15     8    13    1
    16     9    10   ar
    17     9    11    1
    18    11    12    1
    19    15    18    1
    20    17    18   ar
    21    17    22   ar
    22    18    19   ar
    23    19    20   ar
    24    20    21   ar
    25    20    46    1
    26    21    22   ar
    27    21    45    1
    28    23    24    1
    29    24    29   ar
    30    24    25   ar
    31    25    26   ar
    32    26    27   ar
    33    26    32    1
    34    27    28   ar
    35    27    35    1
    36    28    29   ar
    37    29    30    1
    38    30    31    1
    39    32    33    1
    40    32    37    1
    41    32    38    1
    42    33    34    1
    43    33    36    1
    44    34    35    1
    45    38    44    1
    46    39    40   ar
    47    39    44   ar
    48    40    41   ar
    49    40    45    1
    50    41    42   ar
    51    42    43   ar
    52    43    44   ar
    53    46    47    1
