@<TRIPOS>MOLECULE
# University of Indonesia
# Herbal Database
# Metabolite Name:(+-)-alpha-Thujene
M00000184.mol2
 26 27 0 0 0
SMALL
GASTEIGER
Energy = 0

@<TRIPOS>ATOM
      1 C          -1.8473    0.2990   -0.6124 C.3     1  LIG1       -0.0392
      2 C          -0.5352   -0.4467   -0.4143 C.3     1  LIG1       -0.0053
      3 C           0.6129   -0.0239   -1.2710 C.2     1  LIG1       -0.0810
      4 C           1.0510    1.1999   -1.0131 C.2     1  LIG1       -0.0843
      5 C           0.2353    1.8266    0.0744 C.3     1  LIG1       -0.0221
      6 C          -0.3408    3.1865   -0.3188 C.3     1  LIG1       -0.0587
      7 C          -0.5481   -1.8050    0.3213 C.3     1  LIG1       -0.0373
      8 C           0.7407   -2.0333    1.1225 C.3     1  LIG1       -0.0619
      9 C          -0.7875   -2.9431   -0.6765 C.3     1  LIG1       -0.0619
     10 C          -0.8430    0.7908    0.4256 C.3     1  LIG1       -0.0249
     11 H          -1.9346    0.8977   -1.5473 H       1  LIG1        0.0277
     12 H          -2.7579   -0.1859   -0.1938 H       1  LIG1        0.0277
     13 H           1.0675   -0.6635   -2.0238 H       1  LIG1        0.0575
     14 H           1.8635    1.6818   -1.5531 H       1  LIG1        0.0572
     15 H           0.8954    1.9577    0.9629 H       1  LIG1        0.0343
     16 H          -0.9628    3.1078   -1.2390 H       1  LIG1        0.0235
     17 H          -0.9711    3.5837    0.5091 H       1  LIG1        0.0235
     18 H           0.4871    3.9067   -0.5096 H       1  LIG1        0.0235
     19 H          -1.3943   -1.8270    1.0489 H       1  LIG1        0.0304
     20 H           1.6249   -2.0819    0.4465 H       1  LIG1        0.0233
     21 H           0.8927   -1.2034    1.8495 H       1  LIG1        0.0233
     22 H           0.6752   -2.9883    1.6922 H       1  LIG1        0.0233
     23 H          -0.8573   -3.9172   -0.1405 H       1  LIG1        0.0233
     24 H          -1.7444   -2.7777   -1.2227 H       1  LIG1        0.0233
     25 H           0.0418   -3.0017   -1.4179 H       1  LIG1        0.0233
     26 H          -1.0866    0.5919    1.4949 H       1  LIG1        0.0315
@<TRIPOS>BOND
     1     1     2    1
     2     1    10    1
     3     1    11    1
     4     1    12    1
     5     2     3    1
     6     2     7    1
     7     2    10    1
     8     3     4    2
     9     3    13    1
    10     4     5    1
    11     4    14    1
    12     5     6    1
    13     5    10    1
    14     5    15    1
    15     6    16    1
    16     6    17    1
    17     6    18    1
    18     7     8    1
    19     7     9    1
    20     7    19    1
    21     8    20    1
    22     8    21    1
    23     8    22    1
    24     9    23    1
    25     9    24    1
    26     9    25    1
    27    10    26    1
