@<TRIPOS>MOLECULE
# University of Indonesia
# Herbal Database
# Metabolite Name:(+)-Sabinene
M00000857.mol2
 26 27 0 0 0
SMALL
GASTEIGER
Energy = 0

@<TRIPOS>ATOM
      1 C          -1.4588    1.4052    1.2160 C.3     1  LIG1       -0.0166
      2 C          -1.4556    0.0039    0.8279 C.3     1  LIG1       -0.0242
      3 C          -0.0709   -0.4850    0.5002 C.3     1  LIG1       -0.0168
      4 C           1.0383   -0.2982    1.5280 C.3     1  LIG1       -0.0398
      5 C          -0.0915    1.9938    1.1139 C.2     1  LIG1       -0.1045
      6 C          -0.0687    3.0963    0.2622 C.2     1  LIG1       -0.1298
      7 C           0.1336   -1.1066   -0.9210 C.3     1  LIG1       -0.0402
      8 C           1.5519   -1.6192   -1.2446 C.3     1  LIG1       -0.0621
      9 C          -0.8560   -2.2616   -1.1573 C.3     1  LIG1       -0.0621
     10 C           0.7354    0.8295    0.5458 C.3     1  LIG1       -0.0198
     11 H          -2.3548    1.9613    1.4814 H       1  LIG1        0.0348
     12 H          -2.3504   -0.6119    0.8004 H       1  LIG1        0.0315
     13 H           0.5934   -0.2770    2.5493 H       1  LIG1        0.0277
     14 H           1.8444   -1.0375    1.3299 H       1  LIG1        0.0277
     15 H           0.2883    2.2872    2.1211 H       1  LIG1        0.0528
     16 H           0.9691    3.4935    0.1730 H       1  LIG1        0.0458
     17 H          -0.7118    3.9125    0.6670 H       1  LIG1        0.0458
     18 H          -0.4335    2.8300   -0.7589 H       1  LIG1        0.0458
     19 H          -0.1079   -0.3243   -1.6803 H       1  LIG1        0.0301
     20 H           1.5997   -1.9855   -2.2960 H       1  LIG1        0.0233
     21 H           2.3076   -0.8098   -1.1467 H       1  LIG1        0.0233
     22 H           1.8311   -2.4593   -0.5684 H       1  LIG1        0.0233
     23 H          -0.7284   -3.0494   -0.3798 H       1  LIG1        0.0233
     24 H          -1.9069   -1.8965   -1.1294 H       1  LIG1        0.0233
     25 H          -0.6991   -2.7211   -2.1601 H       1  LIG1        0.0233
     26 H           1.7627    1.0185    0.1582 H       1  LIG1        0.0346
@<TRIPOS>BOND
     1     1     2    1
     2     1     5    1
     3     1    11    1
     4     2     3    1
     5     2    12    1
     6     3     4    1
     7     3     7    1
     8     3    10    1
     9     4    10    1
    10     4    13    1
    11     4    14    1
    12     5     6    2
    13     5    10    1
    14     5    15    1
    15     6    16    1
    16     6    17    1
    17     6    18    1
    18     7     8    1
    19     7     9    1
    20     7    19    1
    21     8    20    1
    22     8    21    1
    23     8    22    1
    24     9    23    1
    25     9    24    1
    26     9    25    1
    27    10    26    1
