@<TRIPOS>MOLECULE
# University of Indonesia
# Herbal Database
# Metabolite Name:(+)-Catechin
M00000947.mol2
 23 25 0 0 0
SMALL
GASTEIGER
Energy = 0

@<TRIPOS>ATOM
      1 C          -4.6755    0.3984   -1.0367 C.ar    1  LIG1        0.2019
      2 C          -4.7960   -0.5921   -0.1883 C.ar    1  LIG1        0.0839
      3 C          -3.8072   -1.3254    0.6089 C.ar    1  LIG1        0.1979
      4 C          -2.4930   -0.8997    0.4270 C.ar    1  LIG1        0.0531
      5 C          -2.1988    0.2344   -0.5501 C.ar    1  LIG1        0.1406
      6 C          -3.2813    0.7127   -1.1139 C.ar    1  LIG1        0.0788
      7 C          -1.3425   -1.4491    1.1231 C.3     1  LIG1        0.0626
      8 C           0.0164   -1.1906    0.5809 C.3     1  LIG1        0.1462
      9 C           0.1516    0.3158    0.1936 C.3     1  LIG1        0.1563
     10 O          -0.8894    0.7375   -0.7346 O.3     1  LIG1       -0.4803
     11 C           1.4559    0.7743   -0.3944 C.ar    1  LIG1        0.0153
     12 C           2.3130    0.0357   -1.1130 C.ar    1  LIG1        0.0442
     13 C           3.7266    0.2625   -1.5863 C.ar    1  LIG1        0.2340
     14 C           4.3128    1.4947   -1.2118 C.ar    1  LIG1        0.2342
     15 C           3.3826    2.2918   -0.4226 C.ar    1  LIG1        0.0452
     16 C           2.1919    1.9801   -0.0858 C.ar    1  LIG1        0.0023
     17 O          -5.5999    0.9420   -1.6264 O.3     1  LIG1       -0.2864
     18 O          -4.1211   -2.2256    1.3798 O.3     1  LIG1       -0.2867
     19 O           5.4503    1.8523   -1.5047 O.3     1  LIG1       -0.2831
     20 O           4.3205   -0.5794   -2.2530 O.3     1  LIG1       -0.2832
     21 H           0.0156    0.9099    1.1296 H       1  LIG1        0.0813
     22 O           0.2117   -2.1599   -0.4219 O.3     1  LIG1       -0.2260
     23 H           0.6734   -1.2722    1.4775 H       1  LIG1        0.0678
@<TRIPOS>BOND
     1     1     2   ar
     2     1     6   ar
     3     1    17    1
     4     2     3   ar
     5     3     4   ar
     6     3    18    1
     7     4     5   ar
     8     4     7    1
     9     5     6   ar
    10     5    10    1
    11     7     8    1
    12     8     9    1
    13     8    22    1
    14     8    23    1
    15     9    10    1
    16     9    11    1
    17     9    21    1
    18    11    12   ar
    19    11    16   ar
    20    12    13   ar
    21    13    14   ar
    22    13    20    1
    23    14    15   ar
    24    14    19    1
    25    15    16   ar
