@<TRIPOS>MOLECULE
@<TRIPOS>MOLECULE
# University of Indonesia
# Herbal Database
# Metabolite Name(-)-8-O-Methyloblongine
M00027601.mol2
 46 48 0 0 0
SMALL
GASTEIGER
Energy = 0

@<TRIPOS>ATOM
      1 C          -3.4132   -1.3335   -1.0123 C.ar    1  LIG1        0.1617
      2 C          -3.4056   -2.6738   -1.0886 C.ar    1  LIG1       -0.0160
      3 C          -2.1625   -3.4271   -0.8629 C.ar    1  LIG1       -0.0545
      4 C          -1.0212   -2.7721   -0.5963 C.ar    1  LIG1       -0.0400
      5 C          -1.0009   -1.2804   -0.4096 C.ar    1  LIG1       -0.0111
      6 C          -2.1522   -0.5894   -0.6762 C.ar    1  LIG1        0.1634
      7 C           0.2518   -3.5114   -0.6716 C.3     1  LIG1       -0.0232
      8 C           1.4804   -2.7474   -0.9321 C.3     1  LIG1       -0.0792
      9 N           1.4651   -1.2620   -0.8733 N.4     1  LIG1        0.3827
     10 C           0.3712   -0.7163    0.0682 C.3     1  LIG1       -0.0383
     11 C           0.4992    0.7847    0.3973 C.3     1  LIG1       -0.0177
     12 C           1.6119    1.4424    1.1395 C.ar    1  LIG1       -0.0447
     13 C           2.2916    0.8404    2.1506 C.ar    1  LIG1       -0.0547
     14 C           3.3930    1.5531    2.8579 C.ar    1  LIG1       -0.0147
     15 C           3.7113    2.8170    2.5120 C.ar    1  LIG1        0.1790
     16 C           2.9553    3.5020    1.4290 C.ar    1  LIG1       -0.0147
     17 C           1.9635    2.8554    0.7808 C.ar    1  LIG1       -0.0547
     18 O           4.6219    3.4019    3.0858 O.3     1  LIG1       -0.2879
     19 O          -2.1732    0.8283   -0.7721 O.3     1  LIG1       -0.4912
     20 C          -2.9238    1.4346    0.3161 C.3     1  LIG1        0.0790
     21 O          -4.5964   -0.6247   -1.3665 O.3     1  LIG1       -0.4914
     22 C          -5.5896   -0.7184   -0.3106 C.3     1  LIG1        0.0790
     23 C           1.2474   -0.7543   -2.2818 C.3     1  LIG1       -0.0997
     24 C           2.8740   -0.8764   -0.4783 C.3     1  LIG1       -0.0997
     25 H          -4.3115   -3.2098   -1.3669 H       1  LIG1        0.0655
     26 H          -2.1709   -4.5069   -1.0126 H       1  LIG1        0.0622
     27 H           0.2842   -4.5989   -0.6082 H       1  LIG1        0.0338
     28 H           2.3984   -3.3275   -1.0480 H       1  LIG1        0.0090
     29 H           0.4896   -1.2071    1.0633 H       1  LIG1        0.0155
     30 H          -0.2584    1.4971    0.1408 H       1  LIG1        0.0342
     31 H           2.0435   -0.1667    2.4766 H       1  LIG1        0.0622
     32 H           3.9376    1.0482    3.6550 H       1  LIG1        0.0656
     33 H           3.2051    4.5279    1.1634 H       1  LIG1        0.0656
     34 H           1.4178    3.3718   -0.0082 H       1  LIG1        0.0622
     35 H          -2.5052    2.4459    0.5175 H       1  LIG1        0.0660
     36 H          -2.8754    0.8461    1.2633 H       1  LIG1        0.0660
     37 H          -3.9845    1.5734    0.0108 H       1  LIG1        0.0660
     38 H          -6.0690   -1.7240   -0.3164 H       1  LIG1        0.0660
     39 H          -5.1544   -0.5204    0.6970 H       1  LIG1        0.0660
     40 H          -6.3808    0.0409   -0.5008 H       1  LIG1        0.0660
     41 H           2.0554   -1.0908   -2.9755 H       1  LIG1        0.0029
     42 H           0.2847   -1.1157   -2.7143 H       1  LIG1        0.0029
     43 H           1.2253    0.3611   -2.3066 H       1  LIG1        0.0029
     44 H           3.6419   -1.3532   -1.1358 H       1  LIG1        0.0029
     45 H           3.1017   -1.1954    0.5646 H       1  LIG1        0.0029
     46 H           3.0567    0.2169   -0.5792 H       1  LIG1        0.0029
@<TRIPOS>BOND
     1     1     2   ar
     2     1     6   ar
     3     1    21    1
     4     2     3   ar
     5     2    25    1
     6     3     4   ar
     7     3    26    1
     8     4     5   ar
     9     4     7    1
    10     5     6   ar
    11     5    10    1
    12     6    19    1
    13     7     8    1
    14     7    27    1
    15     8     9    1
    16     8    28    1
    17     9    10    1
    18     9    23    1
    19     9    24    1
    20    10    11    1
    21    10    29    1
    22    11    12    1
    23    11    30    1
    24    12    17   ar
    25    12    13   ar
    26    13    14   ar
    27    13    31    1
    28    14    15   ar
    29    14    32    1
    30    15    16   ar
    31    15    18    1
    32    16    17   ar
    33    16    33    1
    34    17    34    1
    35    19    20    1
    36    20    35    1
    37    20    36    1
    38    20    37    1
    39    21    22    1
    40    22    38    1
    41    22    39    1
    42    22    40    1
    43    23    41    1
    44    23    42    1
    45    23    43    1
    46    24    44    1
    47    24    45    1
    48    24    46    1
