@<TRIPOS>MOLECULE
# University of Indonesia
# Herbal Database
# Metabolite Name:(-)-Repandine
M00025624.mol2
 47 53 0 0 0
SMALL
GASTEIGER
Energy = 0

@<TRIPOS>ATOM
      1 C          -5.7630    1.7387   -0.3669 C.3     1  LIG1        0.0768
      2 N          -5.3777    0.4024   -0.5448 N.3     1  LIG1       -0.2732
      3 C          -3.9232    0.3643   -0.0513 C.3     1  LIG1        0.0523
      4 C          -3.1999    1.6748    0.5260 C.ar    1  LIG1        0.0212
      5 C          -3.8664    2.8943    0.6069 C.ar    1  LIG1       -0.0177
      6 C          -5.1912    2.8902    0.1152 C.3     1  LIG1        0.0436
      7 C          -1.1941    2.7346    1.7190 C.ar    1  LIG1        0.2063
      8 C          -1.9672    4.0268    1.8141 C.ar    1  LIG1        0.1751
      9 C          -3.1211    3.9115    1.2487 C.ar    1  LIG1        0.0358
     10 H          -3.9210   -0.3506    0.8026 H       1  LIG1        0.0523
     11 C          -5.6969    1.0545   -1.5005 C.3     1  LIG1        0.0896
     12 C          -3.1570   -0.2141   -1.1734 C.3     1  LIG1        0.0413
     13 C          -2.4177   -1.4589   -1.0786 C.ar    1  LIG1       -0.0207
     14 C          -2.2352   -2.2591   -0.0005 C.ar    1  LIG1       -0.0011
     15 C          -1.3627   -3.4121    0.0779 C.ar    1  LIG1        0.0372
     16 C          -0.5530   -3.9786   -0.8297 C.ar    1  LIG1        0.1454
     17 C          -0.8101   -3.1386   -2.0219 C.ar    1  LIG1        0.0372
     18 C          -1.5777   -2.0924   -2.1266 C.ar    1  LIG1       -0.0011
     19 O           0.3521   -5.0637   -0.6470 O.3     1  LIG1       -0.4503
     20 C           1.3228   -4.7128    0.3395 C.ar    1  LIG1        0.1836
     21 C           1.5538   -5.4674    1.6960 C.ar    1  LIG1        0.2298
     22 C           2.4937   -4.9170    2.4587 C.ar    1  LIG1        0.0449
     23 C           3.2009   -3.7549    2.0816 C.ar    1  LIG1       -0.0007
     24 C           3.1457   -2.9793    1.0320 C.ar    1  LIG1       -0.0176
     25 C           2.1498   -3.6541    0.1934 C.ar    1  LIG1        0.0366
     26 O           0.9302   -6.4620    2.0508 O.3     1  LIG1       -0.2833
     27 O           0.1209    2.6900    2.2386 O.3     1  LIG1       -0.4654
     28 O          -1.5856    5.1672    2.5521 O.3     1  LIG1       -0.4683
     29 C          -1.7243    6.1493    3.2277 C.3     1  LIG1        0.2526
     30 C           3.6891   -1.6659    0.8681 C.3     1  LIG1        0.0413
     31 C           4.0234   -0.2657    0.6053 C.3     1  LIG1        0.0494
     32 N           5.3827   -0.2312   -0.1126 N.3     1  LIG1       -0.2733
     33 C           5.1072    0.3885   -1.3471 C.3     1  LIG1        0.0768
     34 C           4.0055    0.9100   -1.9928 C.3     1  LIG1        0.0435
     35 C           2.7297    0.8910   -1.3780 C.ar    1  LIG1       -0.0206
     36 C           2.7259    0.3254   -0.0891 C.ar    1  LIG1       -0.0133
     37 C           1.4184    1.3150   -1.8635 C.ar    1  LIG1        0.0356
     38 C           0.1865    1.2964   -1.3719 C.ar    1  LIG1        0.1726
     39 C           0.1575    0.6709    0.0517 C.ar    1  LIG1        0.1788
     40 C           1.3704    0.3332    0.4739 C.ar    1  LIG1        0.0370
     41 O          -0.9377    1.6996   -2.1227 O.3     1  LIG1       -0.4684
     42 C          -1.4096    2.8030   -2.1365 C.3     1  LIG1        0.2526
     43 O          -1.0033    0.4289    0.8444 O.3     1  LIG1       -0.4476
     44 C          -1.7424    1.6284    1.0579 C.ar    1  LIG1        0.1787
     45 H           4.1547    0.2668    1.5739 H       1  LIG1        0.0522
     46 C           6.5476   -0.5176   -0.0782 C.3     1  LIG1        0.0896
     47 C           1.0035    3.4761    2.4462 C.3     1  LIG1        0.2528
@<TRIPOS>BOND
     1     1     2    1
     2     1     6    1
     3     2     3    1
     4     2    11    1
     5     3     4    1
     6     3    10    1
     7     3    12    1
     8     4     5   ar
     9     4    44   ar
    10     5     6    1
    11     5     9   ar
    12     7     8   ar
    13     7    27    1
    14     7    44   ar
    15     8     9   ar
    16     8    28    1
    17    12    13    1
    18    13    18   ar
    19    13    14   ar
    20    14    15   ar
    21    15    16   ar
    22    16    17   ar
    23    16    19    1
    24    17    18   ar
    25    19    20    1
    26    20    21   ar
    27    20    25   ar
    28    21    22   ar
    29    21    26    1
    30    22    23   ar
    31    23    24   ar
    32    24    25   ar
    33    24    30    1
    34    27    47    1
    35    28    29    1
    36    30    31    1
    37    31    36    1
    38    31    32    1
    39    31    45    1
    40    32    33    1
    41    32    46    1
    42    33    34    1
    43    34    35    1
    44    35    36   ar
    45    35    37   ar
    46    36    40   ar
    47    37    38   ar
    48    38    39   ar
    49    38    41    1
    50    39    40   ar
    51    39    43    1
    52    41    42    1
    53    43    44    1
