@<TRIPOS>MOLECULE
# University of Indonesia
# Herbal Database
# Metabolite Name:(R)-beta-Citronellol
M00003038.mol2
 12 11 0 0 0
SMALL
GASTEIGER
Energy = 0

@<TRIPOS>ATOM
      1 C          -3.7722   -0.5756   -0.5741 C.3     1  LIG1        0.0260
      2 C          -3.9074   -0.6444    0.6163 C.2     1  LIG1       -0.0478
      3 C          -4.8327   -0.8028   -0.1311 C.3     1  LIG1        0.0260
      4 C          -2.6785   -0.3866    0.2603 C.2     1  LIG1       -0.0346
      5 C          -1.3493   -0.1075   -0.1238 C.3     1  LIG1        0.0251
      6 C          -0.0196    0.1711   -0.5067 C.3     1  LIG1        0.0008
      7 C           1.3588    0.4591   -0.9029 C.3     1  LIG1       -0.0162
      8 C           2.2368    0.3378    0.2604 C.3     1  LIG1        0.0316
      9 C           3.0844    0.2217    1.3830 C.3     1  LIG1        0.1818
     10 O           3.8993    0.1102    2.4601 O.3     1  LIG1       -0.2204
     11 C           0.5656    1.2118   -0.4087 C.3     1  LIG1       -0.0042
     12 H           1.6776   -0.2640   -1.6861 H       1  LIG1        0.0319
@<TRIPOS>BOND
     1     1     2    1
     2     2     3    1
     3     2     4    2
     4     4     5    1
     5     5     6    1
     6     6     7    1
     7     7     8    1
     8     7    11    1
     9     7    12    1
    10     8     9    1
    11     9    10    1
