@<TRIPOS>MOLECULE
# University of Indonesia
# Herbal Database
# Metabolite Name:(+)-Cycleanorine
M00025657.mol2
 90 96 0 0 0
SMALL
GASTEIGER
Energy = 0

@<TRIPOS>ATOM
      1 C          -2.1299   -3.9034   -1.7274 C.3     1  LIG1        0.1555
      2 C          -2.3000   -5.2126   -0.9416 C.2     1  LIG1        0.1301
      3 C          -1.2131   -5.7266   -0.3189 C.2     1  LIG1       -0.0181
      4 C           0.1163   -5.0523   -0.4188 C.2     1  LIG1       -0.0386
      5 C           0.2283   -3.7614   -0.8644 C.2     1  LIG1       -0.0061
      6 C          -1.0948   -2.9811   -1.0258 C.3     1  LIG1        0.1562
      7 C           1.3413   -5.7772    0.0637 C.3     1  LIG1       -0.0146
      8 C           2.3921   -4.8398    0.6473 C.3     1  LIG1        0.0032
      9 N           2.7646   -3.7625   -0.3265 N.3     1  LIG1       -0.2980
     10 C           1.6473   -3.2504   -1.2185 C.3     1  LIG1        0.0394
     11 O          -3.3207   -3.1824   -2.1828 O.3     1  LIG1       -0.3681
     12 C          -4.4103   -3.0700   -1.2313 C.3     1  LIG1        0.0375
     13 O          -3.5588   -5.8856   -0.8520 O.2     1  LIG1       -0.4966
     14 C          -4.0711   -5.9309    0.5066 C.3     1  LIG1        0.0785
     15 C           4.0237   -4.0864   -1.0635 C.3     1  LIG1       -0.0122
     16 O          -1.6098   -2.6608    0.3047 O.3     1  LIG1       -0.4814
     17 C           1.8626   -1.7438   -1.5174 C.3     1  LIG1       -0.0081
     18 C          -1.7419   -1.2717    0.5986 C.ar    1  LIG1        0.1215
     19 C           2.2001   -0.8317   -0.3573 C.ar    1  LIG1       -0.0456
     20 C          -2.5273   -0.3372   -0.2528 C.ar    1  LIG1       -0.0197
     21 C          -2.7224    0.9343    0.1391 C.ar    1  LIG1       -0.0551
     22 C          -2.0907    1.4519    1.3847 C.ar    1  LIG1       -0.0453
     23 C          -1.3917    0.5943    2.1566 C.ar    1  LIG1       -0.0551
     24 C          -1.2328   -0.8218    1.7561 C.ar    1  LIG1       -0.0197
     25 C           3.1746    0.2734   -0.5780 C.ar    1  LIG1       -0.0581
     26 C           3.5225    1.0876    0.4316 C.ar    1  LIG1       -0.0551
     27 C           2.9102    0.9314    1.7756 C.ar    1  LIG1       -0.0104
     28 C           2.0917   -0.1179    1.9930 C.ar    1  LIG1       -0.0551
     29 C           1.7750   -1.0658    0.8981 C.ar    1  LIG1       -0.0581
     30 C          -2.3952    2.8498    1.8764 C.3     1  LIG1       -0.0078
     31 C           3.1017    1.9910    2.8449 C.3     1  LIG1        0.1150
     32 O           3.0341    3.3885    2.4213 O.3     1  LIG1       -0.4804
     33 C          -2.1408    4.0250   -1.4756 C.3     1  LIG1        0.0032
     34 N          -2.7520    4.2337   -0.1304 N.3     1  LIG1       -0.2977
     35 C          -1.8306    4.0358    1.0541 C.3     1  LIG1        0.0431
     36 C          -0.3264    4.0605    0.7357 C.ar    1  LIG1        0.0185
     37 C           0.0996    4.4634   -0.4926 C.ar    1  LIG1       -0.0343
     38 C          -0.8493    4.8099   -1.6092 C.3     1  LIG1       -0.0143
     39 C          -3.6004    5.4596   -0.0472 C.3     1  LIG1       -0.0122
     40 C           0.7029    3.6674    1.7584 C.ar    1  LIG1        0.1672
     41 C           2.0231    3.6860    1.4509 C.ar    1  LIG1        0.2042
     42 C           2.4592    4.1697    0.1115 C.ar    1  LIG1        0.1655
     43 C           1.5461    4.4739   -0.8169 C.ar    1  LIG1       -0.0125
     44 O           3.8371    4.2224   -0.2408 O.3     1  LIG1       -0.4913
     45 C           4.4009    5.4783    0.2108 C.3     1  LIG1        0.0790
     46 O           0.3095    3.4105    3.0913 O.3     1  LIG1       -0.5030
     47 H          -1.6467   -4.2368   -2.6754 H       1  LIG1        0.0718
     48 H          -1.3010   -6.6613    0.2301 H       1  LIG1        0.0654
     49 H          -0.9706   -2.0861   -1.6717 H       1  LIG1        0.0813
     50 H           1.0656   -6.5205    0.8471 H       1  LIG1        0.0326
     51 H           1.7812   -6.3310   -0.7968 H       1  LIG1        0.0326
     52 H           1.9644   -4.3488    1.5522 H       1  LIG1        0.0430
     53 H           3.2738   -5.4337    0.9862 H       1  LIG1        0.0430
     54 H           1.7679   -3.7402   -2.2162 H       1  LIG1        0.0513
     55 H          -4.0592   -3.0049   -0.1785 H       1  LIG1        0.0524
     56 H          -5.1042   -3.9310   -1.3492 H       1  LIG1        0.0524
     57 H          -4.9838   -2.1446   -1.4589 H       1  LIG1        0.0524
     58 H          -3.8216   -5.0137    1.0904 H       1  LIG1        0.0660
     59 H          -3.6631   -6.8227    1.0334 H       1  LIG1        0.0660
     60 H          -5.1788   -6.0270    0.4655 H       1  LIG1        0.0660
     61 H           3.8851   -4.9869   -1.7050 H       1  LIG1        0.0391
     62 H           4.3419   -3.2340   -1.7032 H       1  LIG1        0.0391
     63 H           4.8519   -4.2792   -0.3439 H       1  LIG1        0.0391
     64 H           2.7045   -1.6835   -2.2448 H       1  LIG1        0.0332
     65 H           0.9982   -1.3080   -2.0576 H       1  LIG1        0.0332
     66 H          -2.9761   -0.6867   -1.1780 H       1  LIG1        0.0654
     67 H          -3.3591    1.5826   -0.4578 H       1  LIG1        0.0621
     68 H          -0.9773    0.9089    3.1114 H       1  LIG1        0.0621
     69 H          -0.7223   -1.5086    2.4278 H       1  LIG1        0.0654
     70 H           3.6226    0.4208   -1.5594 H       1  LIG1        0.0620
     71 H           4.2652    1.8622    0.2640 H       1  LIG1        0.0621
     72 H           1.6269   -0.2702    2.9655 H       1  LIG1        0.0621
     73 H           1.1575   -1.9317    1.1161 H       1  LIG1        0.0620
     74 H          -3.5058    2.9489    1.8914 H       1  LIG1        0.0332
     75 H          -2.0985    2.9618    2.9440 H       1  LIG1        0.0332
     76 H           4.1114    1.8259    3.2830 H       1  LIG1        0.0748
     77 H           2.3749    1.8518    3.6777 H       1  LIG1        0.0748
     78 H          -2.8439    4.3128   -2.2918 H       1  LIG1        0.0430
     79 H          -1.9041    2.9465   -1.6155 H       1  LIG1        0.0430
     80 H          -1.9423    4.9114    1.7391 H       1  LIG1        0.0516
     81 H          -0.3993    4.5730   -2.6015 H       1  LIG1        0.0326
     82 H          -1.0619    5.9025   -1.5755 H       1  LIG1        0.0326
     83 H          -4.3462    5.4786   -0.8741 H       1  LIG1        0.0391
     84 H          -4.1666    5.4652    0.9120 H       1  LIG1        0.0391
     85 H          -2.9748    6.3797   -0.0996 H       1  LIG1        0.0391
     86 H           1.8794    4.7738   -1.8093 H       1  LIG1        0.0658
     87 H           3.8825    6.3447   -0.2628 H       1  LIG1        0.0660
     88 H           4.3463    5.5656    1.3213 H       1  LIG1        0.0660
     89 H           5.4728    5.5112   -0.0853 H       1  LIG1        0.0660
     90 H           0.3664    2.3835    3.1737 H       1  LIG1        0.2923
@<TRIPOS>BOND
     1     1     2    1
     2     1     6    1
     3     1    11    1
     4     1    47    1
     5     2     3    2
     6     2    13    1
     7     3     4    1
     8     3    48    1
     9     4     5    2
    10     4     7    1
    11     5     6    1
    12     5    10    1
    13     6    16    1
    14     6    49    1
    15     7     8    1
    16     7    50    1
    17     7    51    1
    18     8     9    1
    19     8    52    1
    20     8    53    1
    21     9    10    1
    22     9    15    1
    23    10    17    1
    24    10    54    1
    25    11    12    1
    26    12    55    1
    27    12    56    1
    28    12    57    1
    29    13    14    1
    30    14    58    1
    31    14    59    1
    32    14    60    1
    33    15    61    1
    34    15    62    1
    35    15    63    1
    36    16    18    1
    37    17    19    1
    38    17    64    1
    39    17    65    1
    40    18    24   ar
    41    18    20   ar
    42    19    29   ar
    43    19    25   ar
    44    20    21   ar
    45    20    66    1
    46    21    22   ar
    47    21    67    1
    48    22    23   ar
    49    22    30    1
    50    23    24   ar
    51    23    68    1
    52    24    69    1
    53    25    26   ar
    54    25    70    1
    55    26    27   ar
    56    26    71    1
    57    27    28   ar
    58    27    31    1
    59    28    29   ar
    60    28    72    1
    61    29    73    1
    62    30    35    1
    63    30    74    1
    64    30    75    1
    65    31    32    1
    66    31    76    1
    67    31    77    1
    68    32    41    1
    69    33    34    1
    70    33    38    1
    71    33    78    1
    72    33    79    1
    73    34    35    1
    74    34    39    1
    75    35    36    1
    76    35    80    1
    77    36    37   ar
    78    36    40   ar
    79    37    38    1
    80    37    43   ar
    81    38    81    1
    82    38    82    1
    83    39    83    1
    84    39    84    1
    85    39    85    1
    86    40    41   ar
    87    40    46    1
    88    41    42   ar
    89    42    43   ar
    90    42    44    1
    91    43    86    1
    92    44    45    1
    93    45    87    1
    94    45    88    1
    95    45    89    1
    96    46    90    1
