@<TRIPOS>MOLECULE
# University of Indonesia
# Herbal Database
# Metabolite Name:(+)-Gallocatechin
M00008817.mol2
 31 33 0 0 0
SMALL
GASTEIGER
Energy = 0

@<TRIPOS>ATOM
      1 C          -4.0103    0.9149    0.2216 C.ar    1  LIG1        0.1861
      2 C          -4.3244   -0.5192   -0.0219 C.ar    1  LIG1        0.0323
      3 C          -3.3542   -1.4526    0.0763 C.ar    1  LIG1        0.1896
      4 C          -1.9558   -1.0468    0.4368 C.ar    1  LIG1        0.0474
      5 C          -1.6852    0.2662    0.6766 C.ar    1  LIG1        0.1323
      6 C          -2.7570    1.2887    0.5504 C.ar    1  LIG1        0.0273
      7 C          -0.8560   -2.0458    0.5334 C.3     1  LIG1        0.0306
      8 C           0.5193   -1.5642    0.9020 C.3     1  LIG1        0.1032
      9 C           0.8133   -0.0790    0.5800 C.3     1  LIG1        0.1453
     10 O          -0.3567    0.6865    0.9799 O.3     1  LIG1       -0.4817
     11 C           1.1256    0.2258   -0.9256 C.2     1  LIG1       -0.0342
     12 C           2.3422   -0.2869   -1.3292 C.2     1  LIG1       -0.0111
     13 C           3.5569    0.2551   -0.6340 C.2     1  LIG1        0.2290
     14 C           3.5252    1.5699   -0.2392 C.2     1  LIG1        0.2714
     15 C           2.3132    2.3898   -0.6389 C.2     1  LIG1        0.2290
     16 C           1.2312    1.7336   -1.1407 C.2     1  LIG1       -0.0111
     17 O          -4.8961    1.7555    0.1196 O.3     1  LIG1       -0.2877
     18 O          -3.6238   -2.6314   -0.1311 O.3     1  LIG1       -0.2874
     19 O           1.5025   -2.4424    0.3241 O.3     1  LIG1       -0.3872
     20 O           4.4691    2.0836    0.3604 O.2     1  LIG1       -0.2797
     21 O           4.5412   -0.4589   -0.4624 O.2     1  LIG1       -0.2837
     22 O           2.3403    3.6164   -0.6331 O.2     1  LIG1       -0.2837
     23 H          -5.3419   -0.8078   -0.2813 H       1  LIG1        0.0694
     24 H          -2.5199    2.3366    0.7265 H       1  LIG1        0.0693
     25 H          -1.0139   -3.0735    0.2138 H       1  LIG1        0.0384
     26 H           0.5806   -1.6750    2.0100 H       1  LIG1        0.0640
     27 H           1.6526    0.2412    1.2404 H       1  LIG1        0.0805
     28 H           0.2785   -0.2042   -1.5093 H       1  LIG1        0.0613
     29 H           2.4195   -1.0282   -2.1228 H       1  LIG1        0.0655
     30 H           0.4710    2.2682   -1.7086 H       1  LIG1        0.0655
     31 H           1.7159   -3.3605    0.7516 H       1  LIG1        0.2100
@<TRIPOS>BOND
     1     1     2   ar
     2     1     6   ar
     3     1    17    1
     4     2     3   ar
     5     2    23    1
     6     3     4   ar
     7     3    18    1
     8     4     5   ar
     9     4     7    1
    10     5     6   ar
    11     5    10    1
    12     6    24    1
    13     7     8    1
    14     7    25    1
    15     8     9    1
    16     8    19    1
    17     8    26    1
    18     9    10    1
    19     9    11    1
    20     9    27    1
    21    11    12    2
    22    11    16    1
    23    11    28    1
    24    12    13    1
    25    12    29    1
    26    13    14    2
    27    13    21    1
    28    14    15    1
    29    14    20    1
    30    15    16    2
    31    15    22    1
    32    16    30    1
    33    19    31    1
