@<TRIPOS>MOLECULE
# University of Indonesia
# Herbal Database
# Metabolite Name:(+)-Lyoniresinol
M00007205.mol2
 33 35 0 0 0
SMALL
GASTEIGER
Energy = 0

@<TRIPOS>ATOM
      1 C          -3.4176    2.3720   -0.6482 C.ar    1  LIG1        0.1751
      2 C          -3.4269    1.0104   -0.7385 C.ar    1  LIG1        0.2057
      3 C          -2.0943    0.2323   -0.7587 C.ar    1  LIG1        0.1714
      4 C          -0.8850    0.9059   -0.5938 C.ar    1  LIG1        0.0146
      5 C          -0.8916    2.4165   -0.4828 C.ar    1  LIG1       -0.0200
      6 C          -2.0963    2.8783   -0.5156 C.ar    1  LIG1        0.0357
      7 C           0.4805    0.2848   -0.5109 C.3     1  LIG1        0.0461
      8 C           1.5984    1.1721   -1.0539 C.3     1  LIG1        0.0186
      9 C           1.6399    2.5762   -0.3866 C.3     1  LIG1        0.0153
     10 C           0.3048    3.2342   -0.3845 C.3     1  LIG1        0.0246
     11 C           0.7921   -1.0317    0.1156 C.ar    1  LIG1       -0.0123
     12 C          -0.0567   -1.8725    0.9097 C.ar    1  LIG1        0.0365
     13 C           0.0158   -3.0021    1.5759 C.ar    1  LIG1        0.1802
     14 C           1.4334   -3.6006    1.4571 C.ar    1  LIG1        0.2627
     15 C           2.4188   -2.9182    0.7427 C.ar    1  LIG1        0.1802
     16 C           1.9348   -1.6772    0.1308 C.ar    1  LIG1        0.0365
     17 O          -4.5767    3.1748   -0.5870 O.3     1  LIG1       -0.4683
     18 O          -4.6504    0.3169   -0.8834 O.3     1  LIG1       -0.4654
     19 O          -2.1306   -1.1713   -0.9065 O.3     1  LIG1       -0.4686
     20 C           2.1000    2.4920    1.0094 C.3     1  LIG1        0.1782
     21 O           3.2612    1.8855    1.3604 O.3     1  LIG1       -0.2208
     22 C           1.4185    1.3138   -2.5125 C.3     1  LIG1        0.1785
     23 O           2.3772    1.8381   -3.3149 O.3     1  LIG1       -0.2208
     24 H           2.5913    0.6829   -0.9191 H       1  LIG1        0.0348
     25 H           2.3571    3.2355   -0.9290 H       1  LIG1        0.0345
     26 O          -1.1082   -3.6152    2.1694 O.3     1  LIG1       -0.4681
     27 O           1.6873   -4.6772    1.9904 O.3     1  LIG1       -0.2801
     28 O           3.7278   -3.4090    0.5373 O.3     1  LIG1       -0.4681
     29 C          -4.4410    4.1685    0.0716 C.3     1  LIG1        0.2526
     30 C          -4.4530    0.3899    0.2980 C.3     1  LIG1        0.2528
     31 C          -2.0777   -3.2976    1.5374 C.3     1  LIG1        0.2526
     32 C           4.6114   -3.1239    1.2978 C.3     1  LIG1        0.2526
     33 C          -2.1674   -0.9478   -2.0850 C.3     1  LIG1        0.2526
@<TRIPOS>BOND
     1     1     2   ar
     2     1     6   ar
     3     1    17    1
     4     2     3   ar
     5     2    18    1
     6     3     4   ar
     7     3    19    1
     8     4     5   ar
     9     4     7    1
    10     5     6   ar
    11     5    10    1
    12     7     8    1
    13     7    11    1
    14     8     9    1
    15     8    22    1
    16     8    24    1
    17     9    10    1
    18     9    20    1
    19     9    25    1
    20    11    16   ar
    21    11    12   ar
    22    12    13   ar
    23    13    14   ar
    24    13    26    1
    25    14    15   ar
    26    14    27    1
    27    15    16   ar
    28    15    28    1
    29    17    29    1
    30    18    30    1
    31    19    33    1
    32    20    21    1
    33    22    23    1
    34    26    31    1
    35    28    32    1
