@<TRIPOS>MOLECULE
# University of Indonesia
# Herbal Database
# Metabolite Name: (1R,2R,4R,5S)-(+)-p-Menthane-2,5-diol
M00010895.mol2
 32 32 0 0 0
SMALL
GASTEIGER
Energy = 0

@<TRIPOS>ATOM
      1 C          -1.8088    0.5665    0.0396 C.3     1  LIG1        0.0582
      2 C          -1.8534   -0.9657    0.3152 C.3     1  LIG1       -0.0154
      3 C          -0.5535   -1.7046   -0.0855 C.3     1  LIG1       -0.0217
      4 C           0.7426   -0.9655    0.2963 C.3     1  LIG1        0.0587
      5 C           0.7258    0.5667   -0.0074 C.3     1  LIG1       -0.0103
      6 C          -0.5627    1.0172   -0.7368 C.3     1  LIG1       -0.0212
      7 O          -2.9814    0.9701   -0.6928 O.3     1  LIG1       -0.3915
      8 C          -2.2580   -1.2669    1.7670 C.3     1  LIG1       -0.0600
      9 O           1.0148   -1.1826    1.6948 O.3     1  LIG1       -0.3915
     10 C           2.0183    1.1259   -0.6766 C.3     1  LIG1       -0.0415
     11 C           3.2589    0.9343    0.2119 C.3     1  LIG1       -0.0623
     12 C           2.2929    0.6067   -2.0998 C.3     1  LIG1       -0.0623
     13 H          -1.8081    1.1323    1.0023 H       1  LIG1        0.0596
     14 H          -2.6588   -1.4095   -0.3180 H       1  LIG1        0.0324
     15 H          -0.5379   -2.7378    0.3334 H       1  LIG1        0.0294
     16 H          -0.5567   -1.8167   -1.1957 H       1  LIG1        0.0294
     17 H           1.5610   -1.4658   -0.2678 H       1  LIG1        0.0596
     18 H           0.6674    1.0863    0.9804 H       1  LIG1        0.0329
     19 H          -0.6065    0.5851   -1.7623 H       1  LIG1        0.0294
     20 H          -0.5792    2.1282   -0.8310 H       1  LIG1        0.0294
     21 H          -3.9220    0.8374   -0.2838 H       1  LIG1        0.2098
     22 H          -3.2415   -0.7952    1.9936 H       1  LIG1        0.0233
     23 H          -2.3562   -2.3651    1.9255 H       1  LIG1        0.0233
     24 H          -1.5005   -0.8682    2.4793 H       1  LIG1        0.0233
     25 H           1.0246   -2.1394    2.0869 H       1  LIG1        0.2098
     26 H           1.8842    2.2303   -0.7700 H       1  LIG1        0.0299
     27 H           3.5145   -0.1441    0.3179 H       1  LIG1        0.0232
     28 H           3.0785    1.3585    1.2260 H       1  LIG1        0.0232
     29 H           4.1352    1.4622   -0.2292 H       1  LIG1        0.0232
     30 H           3.1950    1.1088   -2.5187 H       1  LIG1        0.0232
     31 H           1.4426    0.8360   -2.7786 H       1  LIG1        0.0232
     32 H           2.4736   -0.4906   -2.1099 H       1  LIG1        0.0232
@<TRIPOS>BOND
     1     1     2    1
     2     1     6    1
     3     1     7    1
     4     1    13    1
     5     2     3    1
     6     2     8    1
     7     2    14    1
     8     3     4    1
     9     3    15    1
    10     3    16    1
    11     4     5    1
    12     4     9    1
    13     4    17    1
    14     5     6    1
    15     5    10    1
    16     5    18    1
    17     6    19    1
    18     6    20    1
    19     7    21    1
    20     8    22    1
    21     8    23    1
    22     8    24    1
    23     9    25    1
    24    10    11    1
    25    10    12    1
    26    10    26    1
    27    11    27    1
    28    11    28    1
    29    11    29    1
    30    12    30    1
    31    12    31    1
    32    12    32    1
