@<TRIPOS>MOLECULE
# University of Indonesia
# Herbal Database
# Metabolite Name:(+)-Isovalencenol
M00016985.mol2
 32 33 0 0 0
SMALL
GASTEIGER
Energy = 0

@<TRIPOS>ATOM
      1 C          -3.3303    0.0048   -0.2507 C.3     1  LIG1       -0.0272
      2 C          -3.3356   -1.4226   -0.6014 C.3     1  LIG1       -0.0127
      3 C          -2.0898   -2.2134   -0.5210 C.2     1  LIG1       -0.0800
      4 C          -0.9457   -1.6982   -0.0167 C.2     1  LIG1       -0.0622
      5 C          -0.7927   -0.2106    0.3581 C.3     1  LIG1       -0.0009
      6 C          -1.9995    0.6862   -0.0983 C.3     1  LIG1       -0.0305
      7 C           0.2256   -2.5915    0.2075 C.3     1  LIG1       -0.0052
      8 C           1.5809   -1.9971    0.2785 C.3     1  LIG1       -0.0051
      9 C           1.8032   -0.5461   -0.0464 C.2     1  LIG1       -0.0589
     10 C           0.5258    0.2139   -0.2820 C.3     1  LIG1       -0.0026
     11 C          -0.6280   -0.1437    1.9019 C.3     1  LIG1       -0.0550
     12 C          -2.1482    2.0473    0.6035 C.3     1  LIG1       -0.0613
     13 C           3.0388    0.0458   -0.1516 C.2     1  LIG1       -0.0351
     14 C           3.1914    1.5228   -0.3117 C.3     1  LIG1       -0.0251
     15 C           4.3451   -0.6889   -0.1128 C.3     1  LIG1        0.1479
     16 O           4.4294   -1.8877   -0.3541 O.3     1  LIG1       -0.2233
     17 H          -4.2684    0.5119   -0.0329 H       1  LIG1        0.0312
     18 H          -4.2656   -1.9052   -0.8935 H       1  LIG1        0.0352
     19 H          -2.1330   -3.2588   -0.8216 H       1  LIG1        0.0575
     20 H          -1.7914    0.9512   -1.1623 H       1  LIG1        0.0310
     21 H           0.1043   -3.6701    0.2882 H       1  LIG1        0.0358
     22 H           2.3892   -2.6581    0.5710 H       1  LIG1        0.0358
     23 H           0.5337    1.0721   -0.9499 H       1  LIG1        0.0360
     24 H          -0.3285    0.8772    2.2302 H       1  LIG1        0.0238
     25 H          -1.5912   -0.4063    2.3971 H       1  LIG1        0.0238
     26 H           0.1471   -0.8424    2.2889 H       1  LIG1        0.0238
     27 H          -2.8800    2.6872    0.0582 H       1  LIG1        0.0233
     28 H          -1.1708    2.5811    0.6199 H       1  LIG1        0.0233
     29 H          -2.5110    1.9154    1.6481 H       1  LIG1        0.0233
     30 H           4.1709    1.9617   -0.4919 H       1  LIG1        0.0314
     31 H           2.3504    2.2063   -0.2381 H       1  LIG1        0.0314
     32 H           5.2441   -0.1116    0.0930 H       1  LIG1        0.0706
@<TRIPOS>BOND
     1     1     2    1
     2     1     6    1
     3     1    17    1
     4     2     3    1
     5     2    18    1
     6     3     4    2
     7     3    19    1
     8     4     5    1
     9     4     7    1
    10     5     6    1
    11     5    10    1
    12     5    11    1
    13     6    12    1
    14     6    20    1
    15     7     8    1
    16     7    21    1
    17     8     9    1
    18     8    22    1
    19     9    10    1
    20     9    13    2
    21    10    23    1
    22    11    24    1
    23    11    25    1
    24    11    26    1
    25    12    27    1
    26    12    28    1
    27    12    29    1
    28    13    14    1
    29    13    15    1
    30    14    30    1
    31    14    31    1
    32    15    16    1
    33    15    32    1
