@<TRIPOS>MOLECULE
# University of Indonesia
# Herbal Database
# Metabolite Name:(R)-(-)-Xanthorrhizol
M00011622.mol2
 32 32 0 0 0
SMALL
GASTEIGER
Energy = 0

@<TRIPOS>ATOM
      1 C          -3.3556   -0.6927   -1.0210 C.ar    1  LIG1       -0.0547
      2 C          -3.0404   -1.9151   -0.2277 C.ar    1  LIG1       -0.0004
      3 C          -2.0077   -1.8790    0.6564 C.ar    1  LIG1        0.1824
      4 C          -1.2037   -0.6339    0.8195 C.ar    1  LIG1       -0.0112
      5 C          -1.4634    0.4859    0.0847 C.ar    1  LIG1       -0.0406
      6 C          -2.6233    0.4277   -0.8712 C.ar    1  LIG1       -0.0578
      7 C          -3.8750   -3.1247   -0.4349 C.3     1  LIG1       -0.0200
      8 O          -1.7179   -2.8619    1.3340 O.3     1  LIG1       -0.2876
      9 C          -0.6674    1.7952    0.2022 C.3     1  LIG1       -0.0149
     10 C          -0.1340    2.2333   -1.1733 C.3     1  LIG1       -0.0581
     11 C           0.4212    1.8364    1.2632 C.3     1  LIG1       -0.0237
     12 C           1.6787    1.0419    1.2887 C.3     1  LIG1       -0.0125
     13 C           2.0683    0.0038    0.2967 C.2     1  LIG1       -0.0808
     14 C           3.2704   -0.6147    0.2074 C.2     1  LIG1       -0.0726
     15 C           3.4768   -1.6485   -0.8342 C.3     1  LIG1       -0.0280
     16 C           4.4244   -0.3196    1.0941 C.3     1  LIG1       -0.0280
     17 H          -4.1864   -0.6997   -1.7250 H       1  LIG1        0.0622
     18 H          -0.4061   -0.6570    1.5550 H       1  LIG1        0.0659
     19 H          -2.8920    1.3055   -1.4546 H       1  LIG1        0.0620
     20 H          -3.6847   -4.0396    0.1228 H       1  LIG1        0.0317
     21 H          -4.6938   -3.1133   -1.1509 H       1  LIG1        0.0317
     22 H          -1.4161    2.5591    0.5184 H       1  LIG1        0.0349
     23 H           0.4534    1.4269   -1.6637 H       1  LIG1        0.0236
     24 H           0.5212    3.1277   -1.0620 H       1  LIG1        0.0236
     25 H          -0.9669    2.5197   -1.8529 H       1  LIG1        0.0236
     26 H           0.2850    2.5373    2.0856 H       1  LIG1        0.0315
     27 H           2.3459    1.2648    2.1153 H       1  LIG1        0.0352
     28 H           1.3018   -0.2835   -0.4174 H       1  LIG1        0.0575
     29 H           2.6774   -1.9227   -1.5203 H       1  LIG1        0.0313
     30 H           4.4354   -2.1541   -0.9312 H       1  LIG1        0.0313
     31 H           4.3886    0.4385    1.8695 H       1  LIG1        0.0313
     32 H           5.3556   -0.8695    0.9742 H       1  LIG1        0.0313
@<TRIPOS>BOND
     1     1     2   ar
     2     1     6   ar
     3     1    17    1
     4     2     3   ar
     5     2     7    1
     6     3     4   ar
     7     3     8    1
     8     4     5   ar
     9     4    18    1
    10     5     6   ar
    11     5     9    1
    12     6    19    1
    13     7    20    1
    14     7    21    1
    15     9    10    1
    16     9    11    1
    17     9    22    1
    18    10    23    1
    19    10    24    1
    20    10    25    1
    21    11    12    1
    22    11    26    1
    23    12    13    1
    24    12    27    1
    25    13    14    2
    26    13    28    1
    27    14    15    1
    28    14    16    1
    29    15    29    1
    30    15    30    1
    31    16    31    1
    32    16    32    1
