@<TRIPOS>MOLECULE
# University of Indonesia
# Herbal Database
# Metabolite Name:(9Z)-beta,beta-Carotene
M00023248.mol2
 84 85 0 0 0
SMALL
GASTEIGER
Energy = 0

@<TRIPOS>ATOM
      1 C          -9.9185    0.5679    0.7243 C.3     1  LIG1       -0.0243
      2 C         -10.3274   -0.8237    0.9083 C.3     1  LIG1       -0.0264
      3 C          -9.4998   -1.8776    0.3290 C.3     1  LIG1       -0.0091
      4 C          -8.2762   -1.5502   -0.4432 C.2     1  LIG1       -0.0616
      5 C          -7.8383   -0.2529   -0.5824 C.2     1  LIG1       -0.0419
      6 C          -8.6504    0.9543   -0.0232 C.3     1  LIG1       -0.0065
      7 C          -7.7990    1.7555    0.9842 C.3     1  LIG1       -0.0555
      8 C          -7.6140   -2.7224   -1.0790 C.3     1  LIG1       -0.0272
      9 C          -6.5568    0.0847   -1.3034 C.2     1  LIG1       -0.0578
     10 C          -5.3179   -0.4391   -1.1418 C.2     1  LIG1       -0.0583
     11 C          -9.1006    1.8752   -1.1797 C.3     1  LIG1       -0.0555
     12 C          -4.8895   -1.4568   -0.1266 C.2     1  LIG1       -0.0470
     13 C          -3.9669   -2.4069   -0.4174 C.2     1  LIG1       -0.0586
     14 C          -5.4687   -1.4535    1.2390 C.3     1  LIG1       -0.0237
     15 C          -3.2727   -2.5450   -1.7193 C.2     1  LIG1       -0.0612
     16 C          -2.3514   -1.7241   -2.2722 C.2     1  LIG1       -0.0586
     17 C          -1.7083   -0.5049   -1.6751 C.2     1  LIG1       -0.0470
     18 C          -1.6100   -0.2773   -0.3390 C.2     1  LIG1       -0.0586
     19 C          -1.1464    0.4566   -2.6629 C.3     1  LIG1       -0.0237
     20 C          -0.9202    0.8766    0.2916 C.2     1  LIG1       -0.0615
     21 C           0.4103    1.0949    0.2880 C.2     1  LIG1       -0.0615
     22 C           1.3992    0.1850   -0.3629 C.2     1  LIG1       -0.0586
     23 C           2.7413    0.2553   -0.2132 C.2     1  LIG1       -0.0470
     24 C           3.3959    1.2891    0.6361 C.2     1  LIG1       -0.0586
     25 C           3.6060   -0.7193   -0.9217 C.3     1  LIG1       -0.0237
     26 C           4.2832    1.0477    1.6215 C.2     1  LIG1       -0.0612
     27 C           4.6563   -0.3068    2.0987 C.2     1  LIG1       -0.0586
     28 C           5.7424   -0.5989    2.8494 C.2     1  LIG1       -0.0470
     29 C           6.8466    0.3561    3.1540 C.2     1  LIG1       -0.0583
     30 C           5.8647   -1.9504    3.4438 C.3     1  LIG1       -0.0237
     31 C           7.6403    1.0286    2.2873 C.2     1  LIG1       -0.0578
     32 C           7.6277    0.9354    0.7872 C.2     1  LIG1       -0.0419
     33 C           8.3079   -0.2820    0.0926 C.3     1  LIG1       -0.0065
     34 C           7.0758    1.9643    0.0617 C.2     1  LIG1       -0.0616
     35 C           6.5481    3.2143    0.6775 C.3     1  LIG1       -0.0272
     36 C           6.9967    1.9214   -1.4181 C.3     1  LIG1       -0.0091
     37 C           7.5823    0.8158   -2.1685 C.3     1  LIG1       -0.0264
     38 C           8.2518   -0.2529   -1.4284 C.3     1  LIG1       -0.0243
     39 C           9.8008   -0.2881    0.4824 C.3     1  LIG1       -0.0555
     40 C           7.6703   -1.6215    0.5029 C.3     1  LIG1       -0.0555
     41 H         -10.5535    1.3439    1.1507 H       1  LIG1        0.0315
     42 H         -11.2299   -1.0685    1.4634 H       1  LIG1        0.0313
     43 H          -9.8090   -2.9119    0.4692 H       1  LIG1        0.0354
     44 H          -8.3449    2.6627    1.3340 H       1  LIG1        0.0238
     45 H          -7.5604    1.1366    1.8783 H       1  LIG1        0.0238
     46 H          -6.8430    2.0949    0.5245 H       1  LIG1        0.0238
     47 H          -6.8048   -2.6089   -1.7939 H       1  LIG1        0.0313
     48 H          -7.9466   -3.7337   -0.8551 H       1  LIG1        0.0313
     49 H          -6.6399    0.8585   -2.0615 H       1  LIG1        0.0621
     50 H          -4.5524   -0.0866   -1.8292 H       1  LIG1        0.0620
     51 H          -9.7836    2.6783   -0.8156 H       1  LIG1        0.0238
     52 H          -9.6420    1.2844   -1.9546 H       1  LIG1        0.0238
     53 H          -8.2375    2.3853   -1.6616 H       1  LIG1        0.0238
     54 H          -3.7152   -3.1594    0.3289 H       1  LIG1        0.0620
     55 H          -6.1566   -0.6768    1.5487 H       1  LIG1        0.0316
     56 H          -5.2083   -2.2222    1.9640 H       1  LIG1        0.0316
     57 H          -3.5572   -3.4287   -2.2879 H       1  LIG1        0.0618
     58 H          -2.0264   -1.9821   -3.2798 H       1  LIG1        0.0620
     59 H          -2.0387   -0.9739    0.3701 H       1  LIG1        0.0620
     60 H          -1.2122    0.2559   -3.7302 H       1  LIG1        0.0316
     61 H          -0.6659    1.3811   -2.3521 H       1  LIG1        0.0316
     62 H          -1.5537    1.5741    0.8366 H       1  LIG1        0.0618
     63 H           0.7750    1.9745    0.8148 H       1  LIG1        0.0618
     64 H           1.0012   -0.6099   -0.9911 H       1  LIG1        0.0620
     65 H           3.1296    2.3259    0.4383 H       1  LIG1        0.0620
     66 H           4.6883   -0.6346   -0.8607 H       1  LIG1        0.0316
     67 H           3.1798   -1.5223   -1.5196 H       1  LIG1        0.0316
     68 H           4.7213    1.8973    2.1361 H       1  LIG1        0.0618
     69 H           3.9639   -1.1128    1.8571 H       1  LIG1        0.0620
     70 H           7.0462    0.4996    4.2147 H       1  LIG1        0.0620
     71 H           5.1014   -2.7090    3.2798 H       1  LIG1        0.0316
     72 H           6.7278   -2.2063    4.0552 H       1  LIG1        0.0316
     73 H           8.3796    1.7100    2.7050 H       1  LIG1        0.0621
     74 H           6.6093    3.3979    1.7471 H       1  LIG1        0.0313
     75 H           6.0904    3.9839    0.0594 H       1  LIG1        0.0313
     76 H           6.5074    2.7203   -1.9723 H       1  LIG1        0.0354
     77 H           7.5289    0.7922   -3.2545 H       1  LIG1        0.0313
     78 H           8.7213   -1.0499   -2.0039 H       1  LIG1        0.0315
     79 H          10.2889    0.6628    0.1653 H       1  LIG1        0.0238
     80 H          10.3402   -1.1362   -0.0010 H       1  LIG1        0.0238
     81 H           9.9259   -0.3934    1.5848 H       1  LIG1        0.0238
     82 H           8.1120   -2.4745   -0.0636 H       1  LIG1        0.0238
     83 H           6.5744   -1.6113    0.3123 H       1  LIG1        0.0238
     84 H           7.8555   -1.8273    1.5790 H       1  LIG1        0.0238
@<TRIPOS>BOND
     1     1     2    1
     2     1     6    1
     3     1    41    1
     4     2     3    1
     5     2    42    1
     6     3     4    1
     7     3    43    1
     8     4     5    2
     9     4     8    1
    10     5     6    1
    11     5     9    1
    12     6     7    1
    13     6    11    1
    14     7    44    1
    15     7    45    1
    16     7    46    1
    17     8    47    1
    18     8    48    1
    19     9    10    2
    20     9    49    1
    21    10    12    1
    22    10    50    1
    23    11    51    1
    24    11    52    1
    25    11    53    1
    26    12    13    2
    27    12    14    1
    28    13    15    1
    29    13    54    1
    30    14    55    1
    31    14    56    1
    32    15    16    2
    33    15    57    1
    34    16    17    1
    35    16    58    1
    36    17    18    2
    37    17    19    1
    38    18    20    1
    39    18    59    1
    40    19    60    1
    41    19    61    1
    42    20    21    2
    43    20    62    1
    44    21    22    1
    45    21    63    1
    46    22    23    2
    47    22    64    1
    48    23    24    1
    49    23    25    1
    50    24    26    2
    51    24    65    1
    52    25    66    1
    53    25    67    1
    54    26    27    1
    55    26    68    1
    56    27    28    2
    57    27    69    1
    58    28    29    1
    59    28    30    1
    60    29    31    2
    61    29    70    1
    62    30    71    1
    63    30    72    1
    64    31    32    1
    65    31    73    1
    66    32    33    1
    67    32    34    2
    68    33    38    1
    69    33    39    1
    70    33    40    1
    71    34    35    1
    72    34    36    1
    73    35    74    1
    74    35    75    1
    75    36    37    1
    76    36    76    1
    77    37    38    1
    78    37    77    1
    79    38    78    1
    80    39    79    1
    81    39    80    1
    82    39    81    1
    83    40    82    1
    84    40    83    1
    85    40    84    1
