@<TRIPOS>MOLECULE
# University of Indonesia
# Herbal Database
# Metabolite Name:(-)-Matairesinol
M00000606.mol2
 45 47 0 0 0
SMALL
GASTEIGER
Energy = 0

@<TRIPOS>ATOM
      1 C          -3.1259    1.0823   -1.8813 C.ar    1  LIG1        0.1235
      2 C          -3.2620   -0.1977   -1.4608 C.ar    1  LIG1       -0.0054
      3 C          -2.0473   -0.9944   -1.1462 C.ar    1  LIG1       -0.0548
      4 C          -0.8264   -0.4606   -1.3041 C.ar    1  LIG1       -0.0578
      5 C          -0.6686    0.9374   -1.7909 C.ar    1  LIG1       -0.0398
      6 C          -1.7704    1.6509   -2.0924 C.ar    1  LIG1       -0.0162
      7 O          -4.2575    1.8617   -2.2502 O.3     1  LIG1       -0.4948
      8 C          -4.6574    2.6844   -1.1255 C.3     1  LIG1        0.0788
      9 C          -4.5870   -0.8330   -1.3046 C.3     1  LIG1       -0.0201
     10 C           0.6719    1.5540   -1.9517 C.3     1  LIG1       -0.0015
     11 C           1.8640    1.1437   -1.1225 C.3     1  LIG1        0.0205
     12 C           3.1288    1.9095   -1.3534 C.3     1  LIG1        0.1442
     13 C           1.7733    1.4509    0.3716 C.3     1  LIG1        0.0706
     14 O           4.1114    1.6476   -0.3713 O.3     1  LIG1       -0.4571
     15 C           3.2369    1.3770    0.7170 C.2     1  LIG1        0.3116
     16 C           0.8057    0.8053    1.3388 C.3     1  LIG1        0.0051
     17 C           0.7433   -0.6516    1.6523 C.ar    1  LIG1       -0.0392
     18 C          -0.2793   -1.1086    2.4186 C.ar    1  LIG1       -0.0544
     19 C          -0.4172   -2.5567    2.7302 C.ar    1  LIG1       -0.0110
     20 C           0.4733   -3.4436    2.2440 C.ar    1  LIG1        0.2202
     21 C           1.6118   -2.9641    1.3918 C.ar    1  LIG1        0.1668
     22 C           1.7481   -1.6431    1.1417 C.ar    1  LIG1       -0.0126
     23 O           0.3417   -4.6380    2.4967 O.3     1  LIG1       -0.2840
     24 O           2.6034   -3.8683    0.9112 O.3     1  LIG1       -0.4913
     25 C           2.1673   -4.4644   -0.3345 C.3     1  LIG1        0.0790
     26 O           3.6782    0.9773    1.7881 O.2     1  LIG1       -0.2505
     27 H          -2.1434   -2.0213   -0.7965 H       1  LIG1        0.0622
     28 H           0.0465   -1.0732   -1.0949 H       1  LIG1        0.0620
     29 H          -1.6867    2.6707   -2.4664 H       1  LIG1        0.0657
     30 H          -5.5575    3.2699   -1.4172 H       1  LIG1        0.0660
     31 H          -4.9235    2.0578   -0.2420 H       1  LIG1        0.0660
     32 H          -3.8505    3.4023   -0.8482 H       1  LIG1        0.0660
     33 H          -5.5017   -0.2902   -1.5343 H       1  LIG1        0.0317
     34 H          -4.6661   -1.8611   -0.9585 H       1  LIG1        0.0317
     35 H           0.7958    2.3482   -2.6877 H       1  LIG1        0.0359
     36 H           2.0807    0.0646   -1.2949 H       1  LIG1        0.0352
     37 H           3.2203    2.7216   -2.0707 H       1  LIG1        0.0775
     38 H           1.5122    2.5397    0.4122 H       1  LIG1        0.0424
     39 H           0.0891    1.4642    1.8305 H       1  LIG1        0.0363
     40 H          -1.0294   -0.4251    2.8149 H       1  LIG1        0.0622
     41 H          -1.2467   -2.8944    3.3498 H       1  LIG1        0.0657
     42 H           2.6034   -1.3134    0.5604 H       1  LIG1        0.0658
     43 H           2.0076   -3.6850   -1.1158 H       1  LIG1        0.0660
     44 H           1.2309   -5.0526   -0.1897 H       1  LIG1        0.0660
     45 H           2.9599   -5.1588   -0.6917 H       1  LIG1        0.0660
@<TRIPOS>BOND
     1     1     2   ar
     2     1     6   ar
     3     1     7    1
     4     2     3   ar
     5     2     9    1
     6     3     4   ar
     7     3    27    1
     8     4     5   ar
     9     4    28    1
    10     5     6   ar
    11     5    10    1
    12     6    29    1
    13     7     8    1
    14     8    30    1
    15     8    31    1
    16     8    32    1
    17     9    33    1
    18     9    34    1
    19    10    11    1
    20    10    35    1
    21    11    12    1
    22    11    13    1
    23    11    36    1
    24    12    14    1
    25    12    37    1
    26    13    16    1
    27    13    15    1
    28    13    38    1
    29    14    15    1
    30    15    26    2
    31    16    17    1
    32    16    39    1
    33    17    22   ar
    34    17    18   ar
    35    18    19   ar
    36    18    40    1
    37    19    20   ar
    38    19    41    1
    39    20    21   ar
    40    20    23    1
    41    21    22   ar
    42    21    24    1
    43    22    42    1
    44    24    25    1
    45    25    43    1
    46    25    44    1
    47    25    45    1
