@<TRIPOS>MOLECULE
# University of Indonesia
# Herbal Database
# Metabolite Name:(+)-Isomenthone
M00010902.mol2
 26 26 0 0 0
SMALL
GASTEIGER
Energy = 0

@<TRIPOS>ATOM
      1 C          -1.3636    1.3942   -0.6983 C.3     1  LIG1       -0.0307
      2 C          -1.5940   -0.0194   -1.1013 C.3     1  LIG1       -0.0242
      3 C          -0.4606   -0.9989   -0.9023 C.3     1  LIG1        0.0235
      4 C           0.7009   -0.3617   -1.6337 C.2     1  LIG1        0.1409
      5 C           1.0900    1.0283   -1.2764 C.3     1  LIG1        0.0304
      6 C           0.0355    1.9980   -0.7547 C.3     1  LIG1       -0.0303
      7 C           0.4518    2.5838    0.5974 C.3     1  LIG1       -0.0615
      8 C          -0.1716   -1.2555    0.6072 C.3     1  LIG1       -0.0369
      9 C           1.0954   -2.1020    0.8222 C.3     1  LIG1       -0.0620
     10 C          -1.3631   -1.9403    1.3010 C.3     1  LIG1       -0.0620
     11 O           1.2990   -0.9412   -2.5337 O.2     1  LIG1       -0.2968
     12 H          -2.2106    2.0131   -0.4102 H       1  LIG1        0.0309
     13 H          -2.5313   -0.3239   -1.5619 H       1  LIG1        0.0313
     14 H          -0.7102   -1.9919   -1.3451 H       1  LIG1        0.0383
     15 H           2.1134    1.3615   -1.4344 H       1  LIG1        0.0387
     16 H          -0.0133    2.8391   -1.4840 H       1  LIG1        0.0308
     17 H          -0.3124    3.3154    0.9465 H       1  LIG1        0.0233
     18 H           1.4195    3.1252    0.4895 H       1  LIG1        0.0233
     19 H           0.5766    1.8047    1.3780 H       1  LIG1        0.0233
     20 H          -0.0094   -0.2948    1.1355 H       1  LIG1        0.0302
     21 H           1.9927   -1.5688    0.4344 H       1  LIG1        0.0233
     22 H           1.2604   -2.2894    1.9082 H       1  LIG1        0.0233
     23 H           1.0076   -3.0817    0.2990 H       1  LIG1        0.0233
     24 H          -1.1493   -2.0896    2.3843 H       1  LIG1        0.0233
     25 H          -1.5711   -2.9329    0.8393 H       1  LIG1        0.0233
     26 H          -2.2785   -1.3113    1.2216 H       1  LIG1        0.0233
@<TRIPOS>BOND
     1     1     2    1
     2     1     6    1
     3     1    12    1
     4     2     3    1
     5     2    13    1
     6     3     4    1
     7     3     8    1
     8     3    14    1
     9     4     5    1
    10     4    11    2
    11     5     6    1
    12     5    15    1
    13     6     7    1
    14     6    16    1
    15     7    17    1
    16     7    18    1
    17     7    19    1
    18     8     9    1
    19     8    10    1
    20     8    20    1
    21     9    21    1
    22     9    22    1
    23     9    23    1
    24    10    24    1
    25    10    25    1
    26    10    26    1
