@<TRIPOS>MOLECULE
# University of Indonesia
# Herbal Database
# Metabolite Name:(+)-Dihydrokaempferol
M00007234.mol2
 31 33 0 0 0
SMALL
GASTEIGER
Energy = 0

@<TRIPOS>ATOM
      1 C          -4.1007    0.6405    0.0242 C.ar    1  LIG1        0.1861
      2 C          -4.3306   -0.8012   -0.2507 C.ar    1  LIG1        0.0327
      3 C          -3.3130   -1.6836   -0.1614 C.ar    1  LIG1        0.1967
      4 C          -1.9342   -1.2131    0.2233 C.ar    1  LIG1        0.1085
      5 C          -1.7479    0.1122    0.4891 C.ar    1  LIG1        0.1394
      6 C          -2.8745    1.0747    0.3729 C.ar    1  LIG1        0.0277
      7 C          -0.7646   -2.1418    0.3184 C.2     1  LIG1        0.2025
      8 C           0.5324   -1.5921    0.8559 C.3     1  LIG1        0.1579
      9 C           0.7734   -0.0997    0.5418 C.3     1  LIG1        0.1518
     10 O          -0.4579    0.6194    0.8204 O.3     1  LIG1       -0.4808
     11 C           1.2036    0.1842   -0.9358 C.2     1  LIG1       -0.0408
     12 C           2.3920   -0.4387   -1.2669 C.2     1  LIG1       -0.0584
     13 C           3.6042   -0.0121   -0.4880 C.2     1  LIG1       -0.0151
     14 C           3.6583    1.2928   -0.0952 C.2     1  LIG1        0.1790
     15 C           2.5617    2.2257   -0.5428 C.2     1  LIG1       -0.0151
     16 C           1.4567    1.6799   -1.1211 C.2     1  LIG1       -0.0584
     17 O          -5.0307    1.4330   -0.0697 O.3     1  LIG1       -0.2877
     18 O          -3.5318   -2.8675   -0.3937 O.3     1  LIG1       -0.2869
     19 O          -0.8201   -3.2680   -0.1664 O.2     1  LIG1       -0.2889
     20 O           0.5269   -1.7783    2.2878 O.3     1  LIG1       -0.3799
     21 O           4.6106    1.7121    0.5518 O.2     1  LIG1       -0.2879
     22 H          -5.3292   -1.1387   -0.5255 H       1  LIG1        0.0694
     23 H          -2.6982    2.1305    0.5727 H       1  LIG1        0.0693
     24 H           1.3712   -2.2013    0.4484 H       1  LIG1        0.0718
     25 H           1.5418    0.2761    1.2566 H       1  LIG1        0.0809
     26 H           0.3609   -0.1632   -1.5780 H       1  LIG1        0.0611
     27 H           2.4513   -1.1793   -2.0633 H       1  LIG1        0.0617
     28 H           4.4193   -0.7023   -0.2812 H       1  LIG1        0.0656
     29 H           2.7055    3.3027   -0.5091 H       1  LIG1        0.0656
     30 H           0.7901    2.2915   -1.7262 H       1  LIG1        0.0617
     31 H           1.2401   -1.3460    2.8999 H       1  LIG1        0.2105
@<TRIPOS>BOND
     1     1     2   ar
     2     1     6   ar
     3     1    17    1
     4     2     3   ar
     5     2    22    1
     6     3     4   ar
     7     3    18    1
     8     4     5   ar
     9     4     7    1
    10     5     6   ar
    11     5    10    1
    12     6    23    1
    13     7     8    1
    14     7    19    2
    15     8     9    1
    16     8    20    1
    17     8    24    1
    18     9    10    1
    19     9    11    1
    20     9    25    1
    21    11    12    2
    22    11    16    1
    23    11    26    1
    24    12    13    1
    25    12    27    1
    26    13    14    2
    27    13    28    1
    28    14    15    1
    29    14    21    1
    30    15    16    2
    31    15    29    1
    32    16    30    1
    33    20    31    1
