@<TRIPOS>MOLECULE
# University of Indonesia
# Herbal Database
# Metabolite Name:(-)-Secoisolariciresinol
M00000604.mol2
 44 45 0 0 0
SMALL
GASTEIGER
Energy = 0

@<TRIPOS>ATOM
      1 C          -2.8593    0.6512    0.6290 C.ar    1  LIG1        0.1668
      2 C          -2.5286   -0.3781    1.4551 C.ar    1  LIG1        0.2202
      3 C          -1.2112   -0.3776    2.1477 C.ar    1  LIG1       -0.0110
      4 C          -0.3265    0.6172    1.9306 C.ar    1  LIG1       -0.0544
      5 C          -0.6610    1.7291    0.9884 C.ar    1  LIG1       -0.0396
      6 C          -1.8744    1.7445    0.3880 C.ar    1  LIG1       -0.0127
      7 O          -4.0883    0.6718   -0.0942 O.3     1  LIG1       -0.4913
      8 C          -5.1161    1.3234    0.6919 C.3     1  LIG1        0.0790
      9 O          -3.3038   -1.3104    1.6459 O.3     1  LIG1       -0.2840
     10 C           0.2949    2.8300    0.7244 C.3     1  LIG1       -0.0029
     11 C           1.7316    2.7322    0.2280 C.3     1  LIG1        0.0042
     12 C           2.6252    3.3882    1.2619 C.3     1  LIG1        0.1267
     13 O           3.8219    3.5516    1.0544 O.3     1  LIG1       -0.2280
     14 C           2.2298    1.3074   -0.1437 C.3     1  LIG1        0.0042
     15 C           1.3674    0.5973   -1.1695 C.3     1  LIG1       -0.0029
     16 C           0.6880   -0.7037   -0.9226 C.ar    1  LIG1       -0.0396
     17 C          -0.4652   -0.9854   -1.5752 C.ar    1  LIG1       -0.0544
     18 C          -1.1716   -2.2753   -1.3416 C.ar    1  LIG1       -0.0110
     19 C          -0.6651   -3.1855   -0.4839 C.ar    1  LIG1        0.2202
     20 C           0.6172   -2.8956    0.2412 C.ar    1  LIG1        0.1668
     21 C           1.2571   -1.7274    0.0149 C.ar    1  LIG1       -0.0127
     22 O           1.2250   -3.8708    1.0851 O.3     1  LIG1       -0.4913
     23 C           0.6984   -3.7708    2.4297 C.3     1  LIG1        0.0790
     24 O          -1.2574   -4.2452   -0.3011 O.3     1  LIG1       -0.2840
     25 C           3.6099    1.2528   -0.7529 C.3     1  LIG1        0.1267
     26 O           4.5188    0.6375   -0.2054 O.3     1  LIG1       -0.2280
     27 H          -0.9670   -1.1853    2.8332 H       1  LIG1        0.0657
     28 H           0.6266    0.6087    2.4550 H       1  LIG1        0.0622
     29 H          -2.1485    2.5502   -0.2914 H       1  LIG1        0.0658
     30 H          -5.3149    0.7591    1.6331 H       1  LIG1        0.0660
     31 H          -6.0566    1.3465    0.0976 H       1  LIG1        0.0660
     32 H          -4.8309    2.3740    0.9337 H       1  LIG1        0.0660
     33 H          -0.0897    3.8355    0.8976 H       1  LIG1        0.0358
     34 H           1.7746    3.3409   -0.7052 H       1  LIG1        0.0337
     35 H           2.1851    3.7297    2.1990 H       1  LIG1        0.0658
     36 H           2.2660    0.7182    0.7987 H       1  LIG1        0.0337
     37 H           1.2332    1.0701   -2.1432 H       1  LIG1        0.0358
     38 H          -0.9016   -0.2708   -2.2720 H       1  LIG1        0.0622
     39 H          -2.1032   -2.4765   -1.8684 H       1  LIG1        0.0657
     40 H           2.2077   -1.5494    0.5117 H       1  LIG1        0.0658
     41 H           0.9808   -2.7964    2.8908 H       1  LIG1        0.0660
     42 H           1.1402   -4.5866    3.0441 H       1  LIG1        0.0660
     43 H          -0.4106   -3.8912    2.4398 H       1  LIG1        0.0660
     44 H           3.7723    1.7768   -1.6938 H       1  LIG1        0.0658
@<TRIPOS>BOND
     1     1     2   ar
     2     1     6   ar
     3     1     7    1
     4     2     3   ar
     5     2     9    1
     6     3     4   ar
     7     3    27    1
     8     4     5   ar
     9     4    28    1
    10     5     6   ar
    11     5    10    1
    12     6    29    1
    13     7     8    1
    14     8    30    1
    15     8    31    1
    16     8    32    1
    17    10    11    1
    18    10    33    1
    19    11    12    1
    20    11    14    1
    21    11    34    1
    22    12    13    1
    23    12    35    1
    24    14    15    1
    25    14    25    1
    26    14    36    1
    27    15    16    1
    28    15    37    1
    29    16    17   ar
    30    16    21   ar
    31    17    18   ar
    32    17    38    1
    33    18    19   ar
    34    18    39    1
    35    19    20   ar
    36    19    24    1
    37    20    21   ar
    38    20    22    1
    39    21    40    1
    40    22    23    1
    41    23    41    1
    42    23    42    1
    43    23    43    1
    44    25    26    1
    45    25    44    1
