@<TRIPOS>MOLECULE
# University of Indonesia
# Herbal Database
# Metabolite Name:(-)-Borneol
M00011024.mol2
 27 28 0 0 0
SMALL
GASTEIGER
Energy = 0

@<TRIPOS>ATOM
      1 C          -2.0831   -0.4606   -0.0490 C.3     1  LIG1        0.0651
      2 C          -1.5689   -1.8455   -0.5119 C.3     1  LIG1       -0.0192
      3 C          -0.1657   -1.5138   -1.0753 C.3     1  LIG1       -0.0145
      4 C          -0.4065   -0.7275   -2.3408 C.2     1  LIG1       -0.0836
      5 C          -0.8720    0.5861   -1.8864 C.2     1  LIG1       -0.0788
      6 C          -0.8711    0.4661   -0.3699 C.3     1  LIG1        0.0175
      7 C          -0.8871    1.8296    0.3319 C.3     1  LIG1       -0.0532
      8 O          -2.4436   -0.4652    1.3471 O.3     1  LIG1       -0.3909
      9 C           0.3850   -0.4232   -0.1286 C.3     1  LIG1       -0.0174
     10 C           1.7508    0.1905   -0.5799 C.3     1  LIG1       -0.0584
     11 C           0.6348   -0.9056    1.3315 C.3     1  LIG1       -0.0584
     12 H          -2.9874   -0.1621   -0.6320 H       1  LIG1        0.0602
     13 H          -2.2331   -2.2888   -1.2910 H       1  LIG1        0.0296
     14 H          -1.5007   -2.5694    0.3316 H       1  LIG1        0.0296
     15 H           0.5028   -2.3950   -1.2079 H       1  LIG1        0.0349
     16 H          -0.1669   -1.0270   -3.3572 H       1  LIG1        0.0572
     17 H          -1.0541    1.4703   -2.4908 H       1  LIG1        0.0576
     18 H          -0.0323    2.4554   -0.0109 H       1  LIG1        0.0239
     19 H          -1.8354    2.3654    0.0996 H       1  LIG1        0.0239
     20 H          -0.8126    1.7003    1.4347 H       1  LIG1        0.0239
     21 H          -2.6648    0.4228    1.8286 H       1  LIG1        0.2098
     22 H           1.7270    0.6279   -1.6021 H       1  LIG1        0.0235
     23 H           2.5421   -0.5940   -0.5774 H       1  LIG1        0.0235
     24 H           2.0605    1.0054    0.1140 H       1  LIG1        0.0235
     25 H           1.4674   -1.6457    1.3507 H       1  LIG1        0.0235
     26 H          -0.2364   -1.3975    1.8082 H       1  LIG1        0.0235
     27 H           0.9183   -0.0452    1.9792 H       1  LIG1        0.0235
@<TRIPOS>BOND
     1     1     2    1
     2     1     6    1
     3     1     8    1
     4     1    12    1
     5     2     3    1
     6     2    13    1
     7     2    14    1
     8     3     4    1
     9     3     9    1
    10     3    15    1
    11     4     5    2
    12     4    16    1
    13     5     6    1
    14     5    17    1
    15     6     7    1
    16     6     9    1
    17     7    18    1
    18     7    19    1
    19     7    20    1
    20     8    21    1
    21     9    10    1
    22     9    11    1
    23    10    22    1
    24    10    23    1
    25    10    24    1
    26    11    25    1
    27    11    26    1
    28    11    27    1
