@<TRIPOS>MOLECULE
# University of Indonesia
# Herbal Database
# Metabolite Name:(-)-Zingiberene
M00003204.mol2
 17 17 0 0 0
SMALL
GASTEIGER
Energy = 0

@<TRIPOS>ATOM
      1 C           1.7251    0.0207    0.7858 C.3     1  LIG1        0.0003
      2 C           1.6991   -1.3313    0.0826 C.3     1  LIG1        0.0255
      3 C           2.7947   -2.0675   -0.5221 C.2     1  LIG1       -0.0304
      4 C           4.1118   -1.8344   -0.6625 C.2     1  LIG1       -0.0264
      5 C           4.1495   -0.5116    0.0237 C.2     1  LIG1       -0.0095
      6 C           3.2082    0.1996    0.5842 C.2     1  LIG1       -0.0310
      7 C           3.6466   -2.8495   -1.1020 C.3     1  LIG1        0.0307
      8 C           0.9196    1.0993    0.0670 C.3     1  LIG1       -0.0184
      9 C          -0.5230    0.9108    0.2519 C.3     1  LIG1        0.0007
     10 C          -1.9104    0.7221    0.4273 C.3     1  LIG1        0.0251
     11 C          -3.2979    0.5296    0.6006 C.2     1  LIG1       -0.0346
     12 C          -4.5806    0.3493    0.7585 C.2     1  LIG1       -0.0478
     13 C          -4.0359   -0.6935    0.9946 C.3     1  LIG1        0.0260
     14 C          -5.7587    0.1742    0.9053 C.3     1  LIG1        0.0260
     15 C          -0.2549    0.8646    0.1414 C.3     1  LIG1       -0.0042
     16 H           1.1555    1.1307   -1.0218 H       1  LIG1        0.0319
     17 H           1.4770   -0.0702    1.8676 H       1  LIG1        0.0361
@<TRIPOS>BOND
     1     1     2    1
     2     1     6    1
     3     1     8    1
     4     1    17    1
     5     2     3    1
     6     3     4    2
     7     4     5    1
     8     4     7    1
     9     5     6    2
    10     8     9    1
    11     8    15    1
    12     8    16    1
    13     9    10    1
    14    10    11    1
    15    11    12    2
    16    12    13    1
    17    12    14    1
