@<TRIPOS>MOLECULE
# University of Indonesia
# Herbal Database
# Metabolite Name:(+)-Epicatechin
M00000957.mol2
 23 25 0 0 0
SMALL
GASTEIGER
Energy = 0

@<TRIPOS>ATOM
      1 C          -4.5571    0.8585    0.3792 C.ar    1  LIG1        0.2019
      2 C          -4.7371   -0.5566    0.2546 C.ar    1  LIG1        0.0839
      3 C          -3.9816   -1.6099    0.0499 C.ar    1  LIG1        0.1979
      4 C          -2.5021   -1.2037   -0.0907 C.ar    1  LIG1        0.0531
      5 C          -2.1381    0.1347    0.0279 C.ar    1  LIG1        0.1406
      6 C          -3.2665    1.0404    0.2501 C.ar    1  LIG1        0.0788
      7 C          -1.4558   -2.1735   -0.3739 C.3     1  LIG1        0.0626
      8 C          -0.0274   -1.7959   -0.2364 C.3     1  LIG1        0.1462
      9 C           0.1649   -0.3484   -0.7686 C.3     1  LIG1        0.1563
     10 O          -0.7915    0.5534   -0.1416 O.3     1  LIG1       -0.4803
     11 C           1.5438    0.2427   -0.6549 C.ar    1  LIG1        0.0153
     12 C           2.6984   -0.4120   -0.8432 C.ar    1  LIG1        0.0442
     13 C           4.1431   -0.0306   -0.6466 C.ar    1  LIG1        0.2340
     14 C           4.3780    1.2716   -0.1458 C.ar    1  LIG1        0.2342
     15 C           3.1205    1.9762    0.0704 C.ar    1  LIG1        0.0452
     16 C           1.9418    1.5388   -0.1466 C.ar    1  LIG1        0.0023
     17 O          -5.3983    1.7322    0.5427 O.3     1  LIG1       -0.2864
     18 O          -4.4305   -2.7468   -0.0337 O.3     1  LIG1       -0.2867
     19 O           0.3089   -2.0595    1.1055 O.3     1  LIG1       -0.2260
     20 O           5.4856    1.7535    0.0706 O.3     1  LIG1       -0.2831
     21 O           5.0509   -0.8119   -0.9185 O.3     1  LIG1       -0.2832
     22 H           0.4840   -2.4188   -1.0058 H       1  LIG1        0.0678
     23 H          -0.0592   -0.3449   -1.8620 H       1  LIG1        0.0813
@<TRIPOS>BOND
     1     1     2   ar
     2     1     6   ar
     3     1    17    1
     4     2     3   ar
     5     3     4   ar
     6     3    18    1
     7     4     5   ar
     8     4     7    1
     9     5     6   ar
    10     5    10    1
    11     7     8    1
    12     8     9    1
    13     8    19    1
    14     8    22    1
    15     9    10    1
    16     9    11    1
    17     9    23    1
    18    11    12   ar
    19    11    16   ar
    20    12    13   ar
    21    13    14   ar
    22    13    21    1
    23    14    15   ar
    24    14    20    1
    25    15    16   ar
