@<TRIPOS>MOLECULE
# University of Indonesia
# Herbal Database
# Metabolite Name:(-)-Blumealactone B
M00012085.mol2
 46 48 0 0 0
SMALL
GASTEIGER
Energy = 0

@<TRIPOS>ATOM
      1 C          -4.0402   -0.0565    1.7429 C.3     1  LIG1       -0.0280
      2 C          -3.7606    1.0394    0.7857 C.3     1  LIG1       -0.0004
      3 C          -3.5018   -1.4307    1.6283 C.3     1  LIG1       -0.0246
      4 C          -2.6221    0.9891   -0.1909 C.3     1  LIG1        0.1007
      5 C          -3.2469   -2.0974    0.3308 C.3     1  LIG1        0.0216
      6 C          -1.2382    0.9186    0.3864 C.3     1  LIG1        0.1325
      7 C          -0.0796    0.3271   -0.3802 C.3     1  LIG1        0.1946
      8 C          -1.8784   -2.5171   -0.1081 C.3     1  LIG1        0.1837
      9 C          -0.6313   -2.0976    0.6452 C.3     1  LIG1        0.1490
     10 C           0.2715   -1.1302   -0.1569 C.3     1  LIG1        0.0695
     11 C          -2.9068    0.7376   -1.6734 C.3     1  LIG1       -0.0329
     12 O          -1.7879    2.1659   -0.1048 O.3     1  LIG1       -0.3604
     13 O           0.6334    1.0385   -1.3906 O.3     1  LIG1       -0.4473
     14 C           1.6683   -1.3901    0.4551 C.2     1  LIG1       -0.0046
     15 O           0.2054   -3.2288    0.9751 O.3     1  LIG1       -0.4546
     16 O          -1.7785   -3.2373   -1.0981 O.3     1  LIG1       -0.2198
     17 C          -4.4275   -2.3336   -0.5330 C.3     1  LIG1       -0.0429
     18 C           2.0179   -0.5846    1.5446 C.2     1  LIG1       -0.1202
     19 C           1.5402   -2.8374    0.7748 C.2     1  LIG1        0.3279
     20 O           2.4189   -3.6635    0.5749 O.2     1  LIG1       -0.2460
     21 C           1.3920    2.1263   -0.8723 C.2     1  LIG1        0.3326
     22 C           2.8620    2.0926   -1.0897 C.2     1  LIG1        0.0218
     23 O           0.8409    3.0499   -0.2865 O.2     1  LIG1       -0.2456
     24 C           3.8265    2.9587   -0.6853 C.2     1  LIG1       -0.0622
     25 C           3.5794    4.1866    0.1118 C.3     1  LIG1       -0.0275
     26 C           5.2374    2.6837   -1.0504 C.3     1  LIG1       -0.0275
     27 H          -4.6581    0.1743    2.6080 H       1  LIG1        0.0310
     28 H          -4.3384    1.9571    0.8613 H       1  LIG1        0.0336
     29 H          -3.3064   -1.9894    2.5413 H       1  LIG1        0.0313
     30 H          -1.1137    1.0158    1.4884 H       1  LIG1        0.0667
     31 H          -0.9061   -1.6137    1.6093 H       1  LIG1        0.0773
     32 H           0.3181   -1.5421   -1.1959 H       1  LIG1        0.0423
     33 H          -3.0436   -0.3473   -1.8604 H       1  LIG1        0.0258
     34 H          -2.0733    1.0951   -2.3209 H       1  LIG1        0.0258
     35 H          -3.8348    1.2745   -1.9729 H       1  LIG1        0.0258
     36 H           2.4414   -1.2613   -0.3411 H       1  LIG1        0.0638
     37 H          -5.4203   -2.0261   -0.2109 H       1  LIG1        0.0272
     38 H          -4.3199   -2.8154   -1.5023 H       1  LIG1        0.0272
     39 H           2.9949   -0.9166    1.9676 H       1  LIG1        0.0463
     40 H           1.2505   -0.6404    2.3516 H       1  LIG1        0.0463
     41 H           2.1309    0.4782    1.2371 H       1  LIG1        0.0463
     42 H           3.1768    1.2235   -1.6654 H       1  LIG1        0.0688
     43 H           4.4125    4.8308    0.3857 H       1  LIG1        0.0313
     44 H           2.5932    4.4872    0.4465 H       1  LIG1        0.0313
     45 H           6.0324    3.3599   -0.7417 H       1  LIG1        0.0313
     46 H           5.5085    1.8049   -1.6331 H       1  LIG1        0.0313
@<TRIPOS>BOND
     1     1     2    1
     2     1     3    1
     3     1    27    1
     4     2     4    1
     5     2    28    1
     6     3     5    1
     7     3    29    1
     8     4     6    1
     9     4    11    1
    10     4    12    1
    11     5     8    1
    12     5    17    1
    13     6     7    1
    14     6    12    1
    15     6    30    1
    16     7    10    1
    17     7    13    1
    18     8     9    1
    19     8    16    1
    20     9    10    1
    21     9    15    1
    22     9    31    1
    23    10    14    1
    24    10    32    1
    25    11    33    1
    26    11    34    1
    27    11    35    1
    28    13    21    1
    29    14    18    2
    30    14    19    1
    31    14    36    1
    32    15    19    1
    33    17    37    1
    34    17    38    1
    35    18    39    1
    36    18    40    1
    37    18    41    1
    38    19    20    2
    39    21    22    1
    40    21    23    2
    41    22    24    2
    42    22    42    1
    43    24    25    1
    44    24    26    1
    45    25    43    1
    46    25    44    1
    47    26    45    1
    48    26    46    1
