@<TRIPOS>MOLECULE
# University of Indonesia
# Herbal Database
# Metabolite Name: (2S)-5,7-Dimethoxy-3',4'-methylenedioxyflavanone
M00014128.mol2
 40 43 0 0 0
SMALL
GASTEIGER
Energy = 0

@<TRIPOS>ATOM
      1 C          -3.5911    0.2812    0.5575 C.ar    1  LIG1        0.1271
      2 C          -3.7291   -1.0504    0.4402 C.ar    1  LIG1        0.0227
      3 C          -2.5500   -1.9458    0.5469 C.ar    1  LIG1        0.1376
      4 C          -1.3237   -1.4124    0.7670 C.ar    1  LIG1        0.1012
      5 C          -1.1861    0.0576    0.9845 C.ar    1  LIG1        0.1389
      6 C          -2.2600    0.8556    0.8646 C.ar    1  LIG1        0.0227
      7 C          -0.0639   -2.1947    0.8054 C.2     1  LIG1        0.1779
      8 C           1.2169   -1.4761    0.7385 C.3     1  LIG1        0.0764
      9 C           1.2078    0.0307    0.5884 C.3     1  LIG1        0.1295
     10 O           0.0808    0.6448    1.2862 O.3     1  LIG1       -0.4831
     11 C           1.2599    0.4785   -0.9108 C.2     1  LIG1       -0.0396
     12 C           2.3944    0.0109   -1.5584 C.2     1  LIG1       -0.0164
     13 C           3.6879    0.5301   -1.0127 C.2     1  LIG1        0.1661
     14 C           3.7173    1.7647   -0.5318 C.2     1  LIG1        0.1662
     15 C           2.4892    2.6273   -0.6088 C.2     1  LIG1       -0.0163
     16 C           1.3297    2.0112   -0.9872 C.2     1  LIG1       -0.0584
     17 O           4.9603   -0.0564   -1.0296 O.2     1  LIG1       -0.4526
     18 O           5.0134    2.1259   -0.1377 O.2     1  LIG1       -0.4526
     19 C           5.8363    0.9860   -0.5154 C.3     1  LIG1        0.2332
     20 O          -4.7368    1.1196    0.5561 O.3     1  LIG1       -0.4949
     21 C          -4.9908    1.5891   -0.7905 C.3     1  LIG1        0.0788
     22 O          -2.7216   -3.3236    0.2424 O.3     1  LIG1       -0.4942
     23 C          -3.1219   -4.0386    1.4383 C.3     1  LIG1        0.0788
     24 O          -0.0535   -3.4183    0.8915 O.2     1  LIG1       -0.2913
     25 H          -4.7130   -1.4797    0.2630 H       1  LIG1        0.0691
     26 H          -2.1600    1.9291    1.0102 H       1  LIG1        0.0691
     27 H           2.1469   -2.0084    0.9220 H       1  LIG1        0.0429
     28 H           2.1133    0.3812    1.1350 H       1  LIG1        0.0786
     29 H           0.3274    0.0898   -1.3824 H       1  LIG1        0.0612
     30 H           2.3471   -0.6546   -2.4172 H       1  LIG1        0.0653
     31 H           2.5536    3.7054   -0.4938 H       1  LIG1        0.0655
     32 H           0.4895    2.5927   -1.3616 H       1  LIG1        0.0617
     33 H           6.3894    0.6091    0.3754 H       1  LIG1        0.1166
     34 H           6.5664    1.2890   -1.3012 H       1  LIG1        0.1166
     35 H          -5.8705    2.2713   -0.7663 H       1  LIG1        0.0660
     36 H          -5.2311    0.7383   -1.4700 H       1  LIG1        0.0660
     37 H          -4.1201    2.1604   -1.1899 H       1  LIG1        0.0660
     38 H          -3.1652   -5.1249    1.2016 H       1  LIG1        0.0660
     39 H          -2.3871   -3.8958    2.2657 H       1  LIG1        0.0660
     40 H          -4.1344   -3.7141    1.7729 H       1  LIG1        0.0660
@<TRIPOS>BOND
     1     1     2   ar
     2     1     6   ar
     3     1    20    1
     4     2     3   ar
     5     2    25    1
     6     3     4   ar
     7     3    22    1
     8     4     5   ar
     9     4     7    1
    10     5     6   ar
    11     5    10    1
    12     6    26    1
    13     7     8    1
    14     7    24    2
    15     8     9    1
    16     8    27    1
    17     9    10    1
    18     9    11    1
    19     9    28    1
    20    11    12    2
    21    11    16    1
    22    11    29    1
    23    12    13    1
    24    12    30    1
    25    13    14    2
    26    13    17    1
    27    14    15    1
    28    14    18    1
    29    15    16    2
    30    15    31    1
    31    16    32    1
    32    17    19    1
    33    18    19    1
    34    19    33    1
    35    19    34    1
    36    20    21    1
    37    21    35    1
    38    21    36    1
    39    21    37    1
    40    22    23    1
    41    23    38    1
    42    23    39    1
    43    23    40    1
