@<TRIPOS>MOLECULE
# University of Indonesia
# Herbal Database
# Metabolite Name:(-)-Viburnitol
M00001174.mol2
 18 18 0 0 0
SMALL
GASTEIGER
Energy = 0

@<TRIPOS>ATOM
      1 C           1.2529   -0.0471   -0.0768 C.3     1  LIG1        0.1424
      2 C           0.1498    0.2841   -1.0699 C.2     1  LIG1        0.1995
      3 C          -1.1850   -0.3478   -0.7894 C.3     1  LIG1        0.1735
      4 C          -1.6039    0.1283    0.5730 C.2     1  LIG1        0.1753
      5 C          -0.6478   -0.0240    1.6878 C.3     1  LIG1        0.0613
      6 C           0.8196    0.2072    1.3926 C.3     1  LIG1        0.0983
      7 O           1.0830    1.5752    1.7550 O.3     1  LIG1       -0.3881
      8 O           2.4783    0.6570   -0.3783 O.3     1  LIG1       -0.3816
      9 O           0.3246    1.0300   -2.0311 O.2     1  LIG1       -0.2913
     10 O          -1.0324   -1.7853   -0.7848 O.3     1  LIG1       -0.3767
     11 O          -2.6861    0.6694    0.7730 O.2     1  LIG1       -0.2938
     12 H           1.4632   -1.1357   -0.1901 H       1  LIG1        0.0700
     13 H          -1.9532   -0.0734   -1.5486 H       1  LIG1        0.0754
     14 H          -0.9843   -0.3441    2.6704 H       1  LIG1        0.0412
     15 H           1.4268   -0.4473    2.0601 H       1  LIG1        0.0631
     16 H           1.9706    2.0164    1.4560 H       1  LIG1        0.2099
     17 H           2.4706    1.3787   -1.1209 H       1  LIG1        0.2105
     18 H          -1.8664   -2.3971   -0.8239 H       1  LIG1        0.2109
@<TRIPOS>BOND
     1     1     2    1
     2     1     6    1
     3     1     8    1
     4     1    12    1
     5     2     3    1
     6     2     9    2
     7     3     4    1
     8     3    10    1
     9     3    13    1
    10     4     5    1
    11     4    11    2
    12     5     6    1
    13     5    14    1
    14     6     7    1
    15     6    15    1
    16     7    16    1
    17     8    17    1
    18    10    18    1
