@<TRIPOS>MOLECULE
# University of Indonesia
# Herbal Database
# Metabolite Name:(+)-2,3-Dihydro-9-hydroxy-2[1-(6-sinapinoyl)beta-D-glucosyloxy-1-methylethyl]-7H-furo[3,2-g][1]benzopyran-7-one
M00019837.mol2
 74 78 0 0 0
SMALL
GASTEIGER
Energy = 0

@<TRIPOS>ATOM
      1 C           2.8976    4.1196    0.7529 C.ar    1  LIG1        0.1748
      2 C           2.3857    3.2693    1.6345 C.ar    1  LIG1        0.0063
      3 C           3.1361    2.0760    2.1073 C.ar    1  LIG1       -0.0438
      4 C           4.3631    1.8519    1.5866 C.ar    1  LIG1        0.0220
      5 C           4.9084    2.7445    0.4957 C.ar    1  LIG1        0.1892
      6 C           4.2389    3.8723    0.1386 C.ar    1  LIG1        0.2630
      7 C           5.3020    0.8210    2.1240 C.ar    1  LIG1       -0.0442
      8 C           6.6215    0.9154    1.8315 C.ar    1  LIG1        0.0236
      9 C           7.0497    1.9724    0.8738 C.ar    1  LIG1        0.3373
     10 O           6.1186    2.3280   -0.1407 O.2     1  LIG1       -0.4181
     11 O           2.0249    5.1919    0.4598 O.3     1  LIG1       -0.4811
     12 C           1.0649    3.7388    2.0102 C.3     1  LIG1        0.0378
     13 C           0.7692    4.9491    1.1531 C.3     1  LIG1        0.1362
     14 O           8.1525    2.5004    0.9403 O.2     1  LIG1       -0.2452
     15 O           4.6929    4.6388   -0.7069 O.3     1  LIG1       -0.2800
     16 C          -0.4004    4.7245    0.1470 C.3     1  LIG1        0.1042
     17 C          -0.4491    5.9274   -0.8222 C.3     1  LIG1       -0.0325
     18 O          -0.0916    3.4867   -0.5724 O.3     1  LIG1       -0.3391
     19 C          -1.7301    4.6291    0.9322 C.3     1  LIG1       -0.0325
     20 C          -1.0801    2.9659   -1.5122 C.3     1  LIG1        0.1885
     21 C          -0.4084    2.5849   -2.8567 C.3     1  LIG1        0.1317
     22 C           0.0291    1.1018   -2.8940 C.3     1  LIG1        0.0883
     23 C           0.3959    0.5919   -1.5011 C.3     1  LIG1        0.0058
     24 C          -0.8180    0.7199   -0.5514 C.3     1  LIG1        0.1047
     25 O          -1.7306    1.8107   -0.9074 O.3     1  LIG1       -0.3416
     26 O           0.6998    3.4717   -3.1330 O.3     1  LIG1       -0.3842
     27 O           1.1308    0.8906   -3.7985 O.3     1  LIG1       -0.3890
     28 C          -0.5234    0.8005    0.9255 C.3     1  LIG1        0.1685
     29 O           0.6874    0.3001    1.4818 O.3     1  LIG1       -0.4518
     30 C           0.8553   -1.1188    1.5387 C.2     1  LIG1        0.3324
     31 C          -0.1965   -2.1187    1.1722 C.2     1  LIG1        0.0231
     32 O           1.9328   -1.5290    1.9564 O.2     1  LIG1       -0.2456
     33 C           0.0356   -3.4468    1.0718 C.2     1  LIG1       -0.0476
     34 C          -0.9949   -4.4940    0.7720 C.ar    1  LIG1       -0.0177
     35 C          -2.3300   -4.2536    0.6725 C.ar    1  LIG1       -0.0087
     36 C          -3.2942   -5.3514    0.3827 C.ar    1  LIG1        0.1708
     37 C          -2.8460   -6.6278    0.2512 C.ar    1  LIG1        0.2614
     38 C          -1.3772   -6.9138    0.3636 C.ar    1  LIG1        0.1708
     39 C          -0.5128   -5.9002    0.5880 C.ar    1  LIG1       -0.0087
     40 O          -0.8634   -8.2266    0.1514 O.3     1  LIG1       -0.4911
     41 O          -3.6356   -7.5470    0.0435 O.3     1  LIG1       -0.2801
     42 O          -4.6851   -5.0351    0.3489 O.3     1  LIG1       -0.4911
     43 C          -0.9337   -8.9937    1.3785 C.3     1  LIG1        0.0790
     44 C          -5.1041   -4.7641   -1.0109 C.3     1  LIG1        0.0790
     45 H           2.7256    1.4337    2.8842 H       1  LIG1        0.0629
     46 H           4.9468    0.0462    2.8016 H       1  LIG1        0.0627
     47 H           7.3496    0.2554    2.2965 H       1  LIG1        0.0689
     48 H           0.4389    3.3371    2.8020 H       1  LIG1        0.0394
     49 H           0.5563    5.8189    1.8175 H       1  LIG1        0.0768
     50 H          -1.3464    5.8946   -1.4784 H       1  LIG1        0.0258
     51 H          -0.4810    6.8869   -0.2567 H       1  LIG1        0.0258
     52 H           0.4523    5.9328   -1.4765 H       1  LIG1        0.0258
     53 H          -2.6058    4.5617    0.2496 H       1  LIG1        0.0258
     54 H          -1.7366    3.7292    1.5847 H       1  LIG1        0.0258
     55 H          -1.8731    5.5291    1.5731 H       1  LIG1        0.0258
     56 H          -1.8674    3.7146   -1.7526 H       1  LIG1        0.0938
     57 H          -1.1515    2.7238   -3.6761 H       1  LIG1        0.0670
     58 H          -0.8275    0.4891   -3.2636 H       1  LIG1        0.0621
     59 H           0.7261   -0.4714   -1.5577 H       1  LIG1        0.0317
     60 H           1.2506    1.1948   -1.1130 H       1  LIG1        0.0317
     61 H          -1.4139   -0.2084   -0.6953 H       1  LIG1        0.0636
     62 H           1.2892    3.7951   -2.3444 H       1  LIG1        0.2101
     63 H           1.7636    1.6819   -4.0131 H       1  LIG1        0.2099
     64 H          -1.1686    1.4023    1.5569 H       1  LIG1        0.0799
     65 H          -1.1943   -1.7389    1.0081 H       1  LIG1        0.0689
     66 H           1.0548   -3.8021    1.2246 H       1  LIG1        0.0626
     67 H          -2.7474   -3.2615    0.8074 H       1  LIG1        0.0661
     68 H           0.5529   -6.1189    0.6361 H       1  LIG1        0.0661
     69 H          -0.5159  -10.0073    1.1877 H       1  LIG1        0.0660
     70 H          -1.9900   -9.1130    1.7156 H       1  LIG1        0.0660
     71 H          -0.3311   -8.5147    2.1852 H       1  LIG1        0.0660
     72 H          -6.1849   -4.4996   -1.0025 H       1  LIG1        0.0660
     73 H          -4.5381   -3.9052   -1.4414 H       1  LIG1        0.0660
     74 H          -4.9729   -5.6651   -1.6548 H       1  LIG1        0.0660
@<TRIPOS>BOND
     1     1     2   ar
     2     1     6   ar
     3     1    11    1
     4     2     3   ar
     5     2    12    1
     6     3     4   ar
     7     3    45    1
     8     4     5   ar
     9     4     7   ar
    10     5     6   ar
    11     5    10   ar
    12     6    15    1
    13     7     8   ar
    14     7    46    1
    15     8     9   ar
    16     8    47    1
    17     9    10   ar
    18     9    14    2
    19    11    13    1
    20    12    13    1
    21    12    48    1
    22    13    16    1
    23    13    49    1
    24    16    17    1
    25    16    18    1
    26    16    19    1
    27    17    50    1
    28    17    51    1
    29    17    52    1
    30    18    20    1
    31    19    53    1
    32    19    54    1
    33    19    55    1
    34    20    21    1
    35    20    25    1
    36    20    56    1
    37    21    22    1
    38    21    26    1
    39    21    57    1
    40    22    23    1
    41    22    27    1
    42    22    58    1
    43    23    24    1
    44    23    59    1
    45    23    60    1
    46    24    25    1
    47    24    28    1
    48    24    61    1
    49    26    62    1
    50    27    63    1
    51    28    29    1
    52    28    64    1
    53    29    30    1
    54    30    31    1
    55    30    32    2
    56    31    33    2
    57    31    65    1
    58    33    34    1
    59    33    66    1
    60    34    35   ar
    61    34    39   ar
    62    35    36   ar
    63    35    67    1
    64    36    37   ar
    65    36    42    1
    66    37    38   ar
    67    37    41    1
    68    38    39   ar
    69    38    40    1
    70    39    68    1
    71    40    43    1
    72    42    44    1
    73    43    69    1
    74    43    70    1
    75    43    71    1
    76    44    72    1
    77    44    73    1
    78    44    74    1
