@<TRIPOS>MOLECULE
# University of Indonesia
# Herbal Database
# Metabolite Name:(+)-Ledol
 21 23 0 0 0
SMALL
GASTEIGER
Energy = 0

@<TRIPOS>ATOM
      1 C          -1.6332   -0.7587   -1.2207 C.3     1  LIG1        0.0324
      2 C          -2.1616    0.5474   -1.4508 C.1     1  LIG1       -0.0975
      3 C          -1.0518   -0.4055    0.2267 C.3     1  LIG1       -0.0049
      4 C          -1.9091    1.5173   -0.5492 C.1     1  LIG1       -0.0942
      5 C          -1.1018    1.2103    0.5934 C.3     1  LIG1        0.0687
      6 C           0.1614    2.1460    0.6140 C.3     1  LIG1        0.1854
      7 C           1.2807    1.3981    0.0821 C.1     1  LIG1       -0.0619
      8 C           0.3148   -1.1095    0.5318 C.3     1  LIG1       -0.0137
      9 C           1.7194    0.1313   -0.3195 C.1     1  LIG1       -0.0949
     10 C           1.4027   -1.2653   -0.6145 C.3     1  LIG1        0.0315
     11 H          -1.6885    1.3858    1.5230 H       1  LIG1        0.0476
     12 C          -1.9742   -1.4851   -2.1127 C.3     1  LIG1        0.0084
     13 H          -2.4651   -1.4966   -1.1597 H       1  LIG1        0.0442
     14 H          -1.7635   -0.8813    0.9446 H       1  LIG1        0.0329
     15 H           0.6486   -0.9952    1.5967 H       1  LIG1        0.0322
     16 C           0.7198    3.2065    0.6692 C.3     1  LIG1        0.0472
     17 O           0.1754    3.4698    0.1319 O.3     1  LIG1       -0.2118
     18 H           0.9749   -1.2938   -1.6414 H       1  LIG1        0.0442
     19 C           0.7378   -2.4500    0.1302 C.3     1  LIG1        0.0036
     20 C           0.9717   -3.4349   -0.5144 C.3     1  LIG1        0.0003
     21 C           1.2296   -3.5083   -0.1501 C.3     1  LIG1        0.0003
@<TRIPOS>BOND
     1     1     3    1
     2     1     2    1
     3     1    12    1
     4     1    13    1
     5     2     4    3
     6     3     5    1
     7     3     8    1
     8     3    14    1
     9     4     5    1
    10     5     6    1
    11     5    11    1
    12     6     7    1
    13     6    16    1
    14     6    17    1
    15     7     9    3
    16     8    10    1
    17     8    15    1
    18     8    19    1
    19     9    10    1
    20    10    18    1
    21    10    19    1
    22    19    20    1
    23    19    21    1
