@<TRIPOS>MOLECULE
# University of Indonesia
# Herbal Database
# Metabolite Name:(+)-Cycleabarbatine
M00025656.mol2
 47 53 0 0 0
SMALL
GASTEIGER
Energy = 0

@<TRIPOS>ATOM
      1 C          -5.2352    1.5018    0.3857 C.3     1  LIG1        0.0768
      2 N          -4.6861    0.2906    0.8333 N.3     1  LIG1       -0.2732
      3 C          -3.2445    0.3134    0.3002 C.3     1  LIG1        0.0523
      4 C          -2.6820    1.5656   -0.5232 C.ar    1  LIG1        0.0212
      5 C          -3.4864    2.6558   -0.8379 C.ar    1  LIG1       -0.0175
      6 C          -4.8080    2.5876   -0.3401 C.3     1  LIG1        0.0436
      7 C          -0.7593    2.6208   -1.8469 C.ar    1  LIG1        0.2114
      8 C          -1.6839    3.7648   -2.1978 C.ar    1  LIG1        0.2320
      9 C          -2.8430    3.6206   -1.6484 C.ar    1  LIG1        0.0409
     10 H          -2.5853    0.1998    1.1918 H       1  LIG1        0.0523
     11 C          -5.2332    0.3550   -0.2327 C.3     1  LIG1        0.0896
     12 C          -3.1227   -0.8689   -0.5742 C.3     1  LIG1        0.0414
     13 C          -2.8858   -2.2161   -0.1069 C.ar    1  LIG1       -0.0176
     14 C          -3.6457   -2.9691    0.6770 C.ar    1  LIG1       -0.0009
     15 C          -3.3901   -4.3141    1.0353 C.ar    1  LIG1        0.0397
     16 C          -2.3888   -5.1095    0.7137 C.ar    1  LIG1        0.1729
     17 C          -1.7476   -3.0794   -0.4894 C.ar    1  LIG1        0.0364
     18 O          -0.1773   -4.9233   -0.7303 O.3     1  LIG1       -0.4504
     19 C           1.0472   -3.1381    0.7403 C.ar    1  LIG1        0.0372
     20 C           2.2398   -4.3757   -0.7050 C.ar    1  LIG1        0.0372
     21 C           3.3287   -3.4767   -0.3821 C.ar    1  LIG1       -0.0011
     22 C           3.3700   -2.3972    0.4015 C.ar    1  LIG1       -0.0207
     23 C           2.0412   -2.3700    1.0571 C.ar    1  LIG1       -0.0011
     24 O           0.5817    2.6471   -2.2976 O.3     1  LIG1       -0.4653
     25 O          -1.4018    4.7270   -2.9030 O.3     1  LIG1       -0.2832
     26 C           4.2083   -1.2482    0.2821 C.3     1  LIG1        0.0412
     27 C           4.6275    0.1538    0.2052 C.3     1  LIG1        0.0494
     28 N           5.9162    0.3470    1.0207 N.3     1  LIG1       -0.2733
     29 C           5.5419    1.2353    2.0488 C.3     1  LIG1        0.0768
     30 C           4.3965    1.8915    2.4538 C.3     1  LIG1        0.0435
     31 C           3.1783    1.7289    1.7489 C.ar    1  LIG1       -0.0206
     32 C           3.2856    0.8967    0.6199 C.ar    1  LIG1       -0.0133
     33 C           1.8177    2.1798    2.0454 C.ar    1  LIG1        0.0356
     34 C           0.6231    1.9719    1.5016 C.ar    1  LIG1        0.1726
     35 C           0.7253    1.0719    0.2397 C.ar    1  LIG1        0.1788
     36 C           1.9815    0.7517   -0.0419 C.ar    1  LIG1        0.0370
     37 O          -0.5779    2.4070    2.1014 O.3     1  LIG1       -0.4684
     38 C          -0.1197    3.1809    1.3068 C.3     1  LIG1        0.2526
     39 O          -0.3646    0.5562   -0.5222 O.3     1  LIG1       -0.4476
     40 C          -1.2101    1.5985   -1.0038 C.ar    1  LIG1        0.1789
     41 H           4.8593    0.4224   -0.8499 H       1  LIG1        0.0522
     42 C           6.0550    1.4914    0.6859 C.3     1  LIG1        0.0896
     43 C          -0.4692    2.2185   -2.6873 C.3     1  LIG1        0.2528
     44 C          -1.3794   -4.3550   -0.2079 C.ar    1  LIG1        0.1786
     45 O          -2.3450   -6.4763    1.0620 O.3     1  LIG1       -0.4684
     46 C          -1.7942   -6.3569    0.0025 C.3     1  LIG1        0.2526
     47 C           0.9805   -4.2356   -0.2492 C.ar    1  LIG1        0.1454
@<TRIPOS>BOND
     1     1     2    1
     2     1     6    1
     3     2     3    1
     4     2    11    1
     5     3     4    1
     6     3    10    1
     7     3    12    1
     8     4     5   ar
     9     4    40   ar
    10     5     6    1
    11     5     9   ar
    12     7     8   ar
    13     7    24    1
    14     7    40   ar
    15     8     9   ar
    16     8    25    1
    17    12    13    1
    18    13    17   ar
    19    13    14   ar
    20    14    15   ar
    21    15    16   ar
    22    16    44   ar
    23    16    45    1
    24    17    44   ar
    25    18    44    1
    26    18    47    1
    27    19    23   ar
    28    19    47   ar
    29    20    21   ar
    30    20    47   ar
    31    21    22   ar
    32    22    23   ar
    33    22    26    1
    34    24    43    1
    35    26    27    1
    36    27    32    1
    37    27    28    1
    38    27    41    1
    39    28    29    1
    40    28    42    1
    41    29    30    1
    42    30    31    1
    43    31    32   ar
    44    31    33   ar
    45    32    36   ar
    46    33    34   ar
    47    34    35   ar
    48    34    37    1
    49    35    36   ar
    50    35    39    1
    51    37    38    1
    52    39    40    1
    53    45    46    1
