@<TRIPOS>MOLECULE
# University of Indonesia
# Herbal Database
# Metabolite Name:(+)-Coclaurine
M00025652.mol2
 35 37 0 0 0
SMALL
GASTEIGER
Energy = 0

@<TRIPOS>ATOM
      1 C          -3.1902   -0.9963   -0.2394 C.ar    1  LIG1        0.2206
      2 C          -3.1832   -2.4578    0.1012 C.ar    1  LIG1        0.1668
      3 C          -2.0047   -3.1023    0.2311 C.ar    1  LIG1       -0.0123
      4 C          -0.7133   -2.3864    0.0088 C.ar    1  LIG1       -0.0338
      5 C          -0.7107   -1.0574   -0.3046 C.ar    1  LIG1       -0.0225
      6 C          -2.0244   -0.3460   -0.4342 C.ar    1  LIG1       -0.0063
      7 C           0.5556   -3.1322    0.1377 C.3     1  LIG1        0.0097
      8 C           1.8082   -2.4058   -0.0835 C.3     1  LIG1        0.0315
      9 N           1.8115   -1.0889   -0.3998 N.3     1  LIG1       -0.3039
     10 C           0.5858   -0.2732   -0.5328 C.3     1  LIG1        0.0410
     11 O          -4.2506   -0.3871   -0.3492 O.3     1  LIG1       -0.2840
     12 O          -4.3929   -3.1598    0.3777 O.3     1  LIG1       -0.4913
     13 C          -4.9970   -3.6173   -0.8566 C.3     1  LIG1        0.0790
     14 C           0.6981    0.8760    0.4455 C.3     1  LIG1        0.0122
     15 C           1.7974    1.8844    0.4318 C.ar    1  LIG1       -0.0416
     16 C           2.7389    1.9649   -0.5458 C.ar    1  LIG1       -0.0546
     17 C           3.8086    3.0015   -0.4907 C.ar    1  LIG1       -0.0147
     18 C           3.8471    3.8799    0.5319 C.ar    1  LIG1        0.1790
     19 C           2.8193    3.8116    1.6052 C.ar    1  LIG1       -0.0147
     20 C           1.8524    2.8713    1.5596 C.ar    1  LIG1       -0.0546
     21 O           4.7253    4.7345    0.5800 O.3     1  LIG1       -0.2879
     22 H          -2.0004   -4.1558    0.5049 H       1  LIG1        0.0658
     23 H          -2.0349    0.7131   -0.6891 H       1  LIG1        0.0660
     24 H           0.5719   -4.1903    0.3899 H       1  LIG1        0.0371
     25 H           2.8013   -2.8445   -0.0122 H       1  LIG1        0.0482
     26 H           2.6975   -0.6385   -0.5092 H       1  LIG1        0.1229
     27 H           0.5348    0.1371   -1.5673 H       1  LIG1        0.0516
     28 H          -4.3093   -4.2969   -1.4122 H       1  LIG1        0.0660
     29 H          -5.9219   -4.1844   -0.6093 H       1  LIG1        0.0660
     30 H          -5.2819   -2.7552   -1.5038 H       1  LIG1        0.0660
     31 H          -0.0695    0.9855    1.2113 H       1  LIG1        0.0374
     32 H           2.7326    1.2826   -1.3920 H       1  LIG1        0.0622
     33 H           4.5561    3.0445   -1.2812 H       1  LIG1        0.0656
     34 H           2.8504    4.5236    2.4276 H       1  LIG1        0.0656
     35 H           1.1080    2.8345    2.3535 H       1  LIG1        0.0622
@<TRIPOS>BOND
     1     1     2   ar
     2     1     6   ar
     3     1    11    1
     4     2     3   ar
     5     2    12    1
     6     3     4   ar
     7     3    22    1
     8     4     5   ar
     9     4     7    1
    10     5     6   ar
    11     5    10    1
    12     6    23    1
    13     7     8    1
    14     7    24    1
    15     8     9    1
    16     8    25    1
    17     9    10    1
    18     9    26    1
    19    10    14    1
    20    10    27    1
    21    12    13    1
    22    13    28    1
    23    13    29    1
    24    13    30    1
    25    14    15    1
    26    14    31    1
    27    15    20   ar
    28    15    16   ar
    29    16    17   ar
    30    16    32    1
    31    17    18   ar
    32    17    33    1
    33    18    19   ar
    34    18    21    1
    35    19    20   ar
    36    19    34    1
    37    20    35    1
