@<TRIPOS>MOLECULE
# University of Indonesia
# Herbal Database
# Metabolite Name:(+)-Dehydrovomifoliol
M00029298.mol2
 34 34 0 0 0
SMALL
GASTEIGER
Energy = 0

@<TRIPOS>ATOM
      1 O           0.1216   -0.1214    1.7667 O.3     1  LIG1       -0.3796
      2 O          -0.0376   -3.8814   -2.0072 O.2     1  LIG1       -0.2927
      3 O           2.2324    4.2044    0.5307 O.2     1  LIG1       -0.2930
      4 C          -0.9840   -0.8021   -0.3021 C.3     1  LIG1        0.0084
      5 C           0.3885   -0.4115    0.3783 C.3     1  LIG1        0.1111
      6 C          -0.7071   -1.6219   -1.5881 C.3     1  LIG1        0.0182
      7 C           1.4710   -1.4953    0.3538 C.2     1  LIG1       -0.0339
      8 C          -1.8517   -1.6855    0.6402 C.3     1  LIG1       -0.0562
      9 C          -1.8325    0.4434   -0.6605 C.3     1  LIG1       -0.0562
     10 C           0.1767   -2.8260   -1.4226 C.2     1  LIG1        0.1568
     11 C           1.0814    0.7830   -0.2623 C.2     1  LIG1       -0.0450
     12 C           1.2325   -2.7563   -0.3948 C.2     1  LIG1       -0.0172
     13 C           2.7853   -1.3415    1.0781 C.3     1  LIG1       -0.0404
     14 C           1.3640    2.0542    0.4543 C.2     1  LIG1       -0.0204
     15 C           1.9674    3.2459   -0.1860 C.2     1  LIG1        0.1528
     16 C           2.1238    3.3528   -1.6743 C.3     1  LIG1       -0.0020
     17 H          -1.6723   -1.9525   -2.0397 H       1  LIG1        0.0351
     18 H          -0.2082   -0.9719   -2.3431 H       1  LIG1        0.0351
     19 H          -2.7647   -2.0555    0.1184 H       1  LIG1        0.0236
     20 H          -1.2801   -2.5702    1.0018 H       1  LIG1        0.0236
     21 H          -2.1898   -1.1099    1.5324 H       1  LIG1        0.0236
     22 H          -1.3263    1.0708   -1.4291 H       1  LIG1        0.0236
     23 H          -2.0008    1.0715    0.2445 H       1  LIG1        0.0236
     24 H          -2.8256    0.1469   -1.0712 H       1  LIG1        0.0236
     25 H           1.3810    0.6930   -1.3042 H       1  LIG1        0.0605
     26 H           1.8667   -3.6241   -0.2246 H       1  LIG1        0.0653
     27 H           0.0957   -0.8920    2.4554 H       1  LIG1        0.2111
     28 H           2.7799   -0.4460    1.7394 H       1  LIG1        0.0275
     29 H           2.9799   -2.2398    1.7062 H       1  LIG1        0.0275
     30 H           3.6058   -1.2316    0.3341 H       1  LIG1        0.0275
     31 H           1.1308    2.1267    1.5146 H       1  LIG1        0.0650
     32 H           2.2475    4.4175   -1.9760 H       1  LIG1        0.0309
     33 H           3.0245    2.7815   -1.9910 H       1  LIG1        0.0309
     34 H           1.2256    2.9475   -2.1918 H       1  LIG1        0.0309
@<TRIPOS>BOND
     1     1     5    1
     2     1    27    1
     3     2    10    2
     4     3    15    2
     5     4     5    1
     6     4     6    1
     7     4     8    1
     8     4     9    1
     9     5     7    1
    10     5    11    1
    11     6    10    1
    12     6    17    1
    13     6    18    1
    14     7    12    2
    15     7    13    1
    16     8    19    1
    17     8    20    1
    18     8    21    1
    19     9    22    1
    20     9    23    1
    21     9    24    1
    22    10    12    1
    23    11    14    2
    24    11    25    1
    25    12    26    1
    26    13    28    1
    27    13    29    1
    28    13    30    1
    29    14    15    1
    30    14    31    1
    31    15    16    1
    32    16    32    1
    33    16    33    1
    34    16    34    1
