@<TRIPOS>MOLECULE
# University of Indonesia
# Herbal Database
# Metabolite Name: (3beta)-28-Norlup-20(29)-ene-3,17-diol
M00021222.mol2
 35 39 0 0 0
SMALL
GASTEIGER
Energy = 0

@<TRIPOS>ATOM
      1 C          -4.6865   -0.9031   -0.4901 C.3     1  LIG1        0.0329
      2 C          -4.8823   -2.2230   -0.9598 C.3     1  LIG1        0.1516
      3 C          -3.5891   -3.0216   -0.7754 C.3     1  LIG1        0.0248
      4 C          -2.4477   -2.5103    0.2009 C.3     1  LIG1       -0.0170
      5 C          -2.2411   -0.9087    0.4464 C.3     1  LIG1       -0.0066
      6 C          -3.5536   -0.3854    0.1068 C.3     1  LIG1        0.0020
      7 C          -1.1466   -2.8863   -0.2900 C.3     1  LIG1       -0.0039
      8 C           0.0023   -2.1906   -0.5928 C.3     1  LIG1       -0.0006
      9 C           0.3766   -0.7963   -0.5590 C.3     1  LIG1       -0.0037
     10 C          -1.0796   -0.1022   -0.3101 C.3     1  LIG1       -0.0193
     11 C           1.5542   -0.5628    0.4936 C.3     1  LIG1       -0.0037
     12 C           1.8350    0.9211    1.1092 C.3     1  LIG1       -0.0199
     13 C           0.4889    1.4439    1.0713 C.3     1  LIG1       -0.0044
     14 C          -0.6915    1.0387    0.4859 C.3     1  LIG1       -0.0043
     15 C           2.8450   -0.8765   -0.0610 C.3     1  LIG1        0.0022
     16 C           3.9938   -0.1533   -0.2644 C.3     1  LIG1        0.0301
     17 C           4.3382    1.2265   -0.0428 C.3     1  LIG1        0.1233
     18 C           2.9313    1.9168    0.4508 C.3     1  LIG1        0.0101
     19 C           4.3846    1.9123   -1.3048 C.3     1  LIG1        0.0305
     20 C           2.4813    2.9599   -0.6322 C.3     1  LIG1        0.0560
     21 C           3.4167    2.7914   -1.6685 C.3     1  LIG1        0.0096
     22 C           1.4562    4.0153   -0.5878 C.2     1  LIG1        0.1504
     23 C           2.1574    3.6705   -1.4986 C.3     1  LIG1        0.0722
     24 O           0.8326    4.2565    0.4386 O.2     1  LIG1       -0.2961
     25 C          -3.6200   -2.6360   -1.9113 C.3     1  LIG1        0.0022
     26 C          -3.6213   -2.6360   -1.9113 C.3     1  LIG1        0.0022
     27 O           5.5567    1.3454    0.6511 O.3     1  LIG1       -0.2260
     28 H           3.2292    2.5787    1.2979 H       1  LIG1        0.0343
     29 H           2.1141    0.7679    2.1776 H       1  LIG1        0.0316
     30 C          -0.0281   -0.4933    0.5292 C.3     1  LIG1       -0.0003
     31 C          -1.2961   -0.8712    1.1850 C.3     1  LIG1       -0.0006
     32 H          -1.4455    0.2518   -1.3018 H       1  LIG1        0.0318
     33 C           1.2700    0.4624   -0.0614 C.3     1  LIG1       -0.0003
     34 H          -2.6066   -2.9927    1.1913 H       1  LIG1        0.0319
     35 O          -5.9824   -2.6904   -1.2184 O.3     1  LIG1       -0.2232
@<TRIPOS>BOND
     1     1     2    1
     2     1     6    1
     3     2     3    1
     4     2    35    1
     5     3     4    1
     6     3    25    1
     7     3    26    1
     8     4     5    1
     9     4     7    1
    10     4    34    1
    11     5     6    1
    12     5    10    1
    13     5    31    1
    14     7     8    1
    15     8     9    1
    16     9    10    1
    17     9    11    1
    18     9    30    1
    19    10    14    1
    20    10    32    1
    21    11    12    1
    22    11    15    1
    23    11    33    1
    24    12    13    1
    25    12    18    1
    26    12    29    1
    27    13    14    1
    28    15    16    1
    29    16    17    1
    30    17    18    1
    31    17    19    1
    32    17    27    1
    33    18    20    1
    34    18    28    1
    35    19    21    1
    36    20    21    1
    37    20    22    1
    38    22    23    1
    39    22    24    2
