@<TRIPOS>MOLECULE
# University of Indonesia
# Herbal Database
# Metabolite Name:(S)-6-Gingerol
M00002748.mol2
 22 22 0 0 0
SMALL
GASTEIGER
Energy = 0

@<TRIPOS>ATOM
      1 C          -4.6669   -0.5376    0.2529 C.ar    1  LIG1        0.1771
      2 C          -4.8674   -1.9313    0.2041 C.ar    1  LIG1        0.2293
      3 C          -3.6156   -2.6567    0.4297 C.ar    1  LIG1        0.0449
      4 C          -2.4312   -2.2151    0.6663 C.ar    1  LIG1       -0.0008
      5 C          -2.1203   -0.7866    0.7511 C.ar    1  LIG1       -0.0185
      6 C          -3.2603   -0.1327    0.5410 C.ar    1  LIG1        0.0360
      7 O          -5.7145    0.4025    0.1318 O.3     1  LIG1       -0.4682
      8 C          -5.0120    1.0135    0.8889 C.3     1  LIG1        0.2526
      9 O          -5.9512   -2.4707    0.0072 O.3     1  LIG1       -0.2833
     10 C          -0.8437   -0.1756    1.0014 C.3     1  LIG1        0.0342
     11 C           0.4122    0.4211    1.2461 C.3     1  LIG1        0.0692
     12 C           1.6935    1.0250    1.4934 C.2     1  LIG1        0.1531
     13 C           2.5346    1.3950    0.3911 C.3     1  LIG1        0.0908
     14 O           2.0687    1.2174    2.6427 O.2     1  LIG1       -0.2960
     15 C           3.3920    1.7677   -0.7308 C.3     1  LIG1        0.1155
     16 C           4.4157    0.7310   -0.8643 C.3     1  LIG1        0.0268
     17 O           4.0358    2.9734   -0.3984 O.3     1  LIG1       -0.2294
     18 H           2.7590    1.6947   -1.6428 H       1  LIG1        0.0644
     19 C           5.3993   -0.2735   -0.9945 C.3     1  LIG1        0.0022
     20 C           6.3809   -1.2795   -1.1248 C.3     1  LIG1        0.0001
     21 C           7.3624   -2.2861   -1.2549 C.3     1  LIG1        0.0000
     22 C           6.9848   -1.1584   -1.0939 C.3     1  LIG1        0.0000
@<TRIPOS>BOND
     1     1     2   ar
     2     1     6   ar
     3     1     7    1
     4     2     3   ar
     5     2     9    1
     6     3     4   ar
     7     4     5   ar
     8     5     6   ar
     9     5    10    1
    10     7     8    1
    11    10    11    1
    12    11    12    1
    13    12    13    1
    14    12    14    2
    15    13    15    1
    16    15    16    1
    17    15    17    1
    18    15    18    1
    19    16    19    1
    20    19    20    1
    21    20    21    1
    22    21    22    1
