@<TRIPOS>MOLECULE
# University of Indonesia
# Herbal Database
# Metabolite Name:(+)-Epijasmonic acid
M00000446.mol2
 27 27 0 0 0
SMALL
GASTEIGER
Energy = 0

@<TRIPOS>ATOM
      1 C          -2.1494   -0.8061    1.2376 C.2     1  LIG1        0.1413
      2 C          -3.3054   -0.4501    0.4355 C.3     1  LIG1        0.0309
      3 C          -1.0355    0.1950    1.0557 C.3     1  LIG1        0.0282
      4 C          -3.0219    0.8082   -0.2274 C.3     1  LIG1       -0.0231
      5 C          -1.7286    1.3663    0.2907 C.3     1  LIG1       -0.0170
      6 C           0.1616   -0.6386    0.6104 C.3     1  LIG1       -0.0062
      7 C          -0.9751    2.2029   -0.7500 C.3     1  LIG1        0.0529
      8 C           0.2819    2.9149   -0.3555 C.2     1  LIG1        0.3563
      9 C           0.9736   -0.5142   -0.6271 C.2     1  LIG1       -0.0833
     10 C           1.7579   -1.4757   -1.1528 C.2     1  LIG1       -0.0840
     11 C           1.8955   -2.8540   -0.6229 C.3     1  LIG1       -0.0166
     12 C           2.8264   -3.8073   -1.2448 C.3     1  LIG1       -0.0457
     13 O           0.4892    3.1670    0.8248 O.co2   1  LIG1       -0.2464
     14 O           1.1493    3.1064   -1.1982 O.co2   1  LIG1       -0.2464
     15 O          -2.1119   -1.8163    1.9368 O.2     1  LIG1       -0.2968
     16 H          -4.2113   -1.0401    0.3279 H       1  LIG1        0.0387
     17 H          -0.7467    0.6155    2.0474 H       1  LIG1        0.0386
     18 H          -3.5934    1.2056   -1.0617 H       1  LIG1        0.0314
     19 H          -2.0545    2.1021    1.0661 H       1  LIG1        0.0316
     20 H           0.4584   -1.4214    1.3048 H       1  LIG1        0.0356
     21 H          -1.6563    3.0229   -1.0725 H       1  LIG1        0.0382
     22 H          -0.7996    1.5884   -1.6599 H       1  LIG1        0.0382
     23 H           0.9703    0.4285   -1.1516 H       1  LIG1        0.0572
     24 H           2.3317   -1.2254   -2.0444 H       1  LIG1        0.0572
     25 H           1.3109   -3.1964    0.2266 H       1  LIG1        0.0349
     26 H           2.9081   -4.8176   -0.8520 H       1  LIG1        0.0271
     27 H           3.4384   -3.5129   -2.0945 H       1  LIG1        0.0271
@<TRIPOS>BOND
     1     1     3    1
     2     1     2    1
     3     1    15    2
     4     2     4    1
     5     2    16    1
     6     3     5    1
     7     3     6    1
     8     3    17    1
     9     4     5    1
    10     4    18    1
    11     5     7    1
    12     5    19    1
    13     6     9    1
    14     6    20    1
    15     7     8    1
    16     7    21    1
    17     7    22    1
    18     8    13   ar
    19     8    14   ar
    20     9    10    2
    21     9    23    1
    22    10    11    1
    23    10    24    1
    24    11    12    1
    25    11    25    1
    26    12    26    1
    27    12    27    1
