@<TRIPOS>MOLECULE
# University of Indonesia
# Herbal Database
# Metabolite Name:(E)-alpha-Citral
M00003035.mol2
 27 26 0 0 0
SMALL
GASTEIGER
Energy = 0

@<TRIPOS>ATOM
      1 C          -3.0649   -0.7319    1.2946 C.3     1  LIG1       -0.0440
      2 C          -2.0850   -0.2288    0.2596 C.2     1  LIG1       -0.0796
      3 C          -1.9181    1.2608    0.0690 C.3     1  LIG1       -0.0440
      4 C          -1.4675   -1.1403   -0.5362 C.2     1  LIG1       -0.0850
      5 C          -0.5341   -0.8149   -1.6812 C.3     1  LIG1       -0.0308
      6 C           0.9243   -1.1008   -1.3209 C.3     1  LIG1       -0.0282
      7 C           1.5495   -0.3040   -0.1896 C.2     1  LIG1       -0.0693
      8 C           1.6293   -0.8844    1.0359 C.2     1  LIG1       -0.0235
      9 C           2.2065    1.0220   -0.5003 C.3     1  LIG1       -0.0434
     10 C           2.2569   -0.2683    2.2279 C.2     1  LIG1        0.1431
     11 O           2.3029   -0.9127    3.2695 O.2     1  LIG1       -0.2963
     12 H          -2.5249   -0.8919    2.2547 H       1  LIG1        0.0274
     13 H          -3.5426   -1.6904    0.9865 H       1  LIG1        0.0274
     14 H          -3.8803    0.0075    1.4630 H       1  LIG1        0.0274
     15 H          -2.1947    1.5542   -0.9684 H       1  LIG1        0.0274
     16 H          -0.8617    1.5468    0.2675 H       1  LIG1        0.0274
     17 H          -2.5672    1.8368    0.7663 H       1  LIG1        0.0274
     18 H          -1.7061   -2.1962   -0.4091 H       1  LIG1        0.0572
     19 H          -0.6239    0.2385   -2.0269 H       1  LIG1        0.0310
     20 H          -0.8179   -1.4646   -2.5412 H       1  LIG1        0.0310
     21 H           1.0204   -2.1949   -1.1218 H       1  LIG1        0.0313
     22 H           1.5268   -0.9228   -2.2414 H       1  LIG1        0.0313
     23 H           1.1978   -1.8741    1.1868 H       1  LIG1        0.0649
     24 H           3.2516    1.0446   -0.1179 H       1  LIG1        0.0274
     25 H           1.6234    1.8425   -0.0257 H       1  LIG1        0.0274
     26 H           2.2438    1.2132   -1.5962 H       1  LIG1        0.0274
     27 H           2.6620    0.7380    2.1688 H       1  LIG1        0.1075
@<TRIPOS>BOND
     1     1     2    1
     2     1    12    1
     3     1    13    1
     4     1    14    1
     5     2     3    1
     6     2     4    2
     7     3    15    1
     8     3    16    1
     9     3    17    1
    10     4     5    1
    11     4    18    1
    12     5     6    1
    13     5    19    1
    14     5    20    1
    15     6     7    1
    16     6    21    1
    17     6    22    1
    18     7     8    2
    19     7     9    1
    20     8    10    1
    21     8    23    1
    22     9    24    1
    23     9    25    1
    24     9    26    1
    25    10    11    2
    26    10    27    1
