@<TRIPOS>MOLECULE
# University of Indonesia
# Herbal Database
# Metabolite Name:(+)-Sesamin
M00000601.mol2
 48 52 0 0 0
SMALL
GASTEIGER
Energy = 0

@<TRIPOS>ATOM
      1 C           0.7244    2.8122   -1.8412 C.2     1  LIG1       -0.0200
      2 C           0.5082    1.6288   -2.7978 C.2     1  LIG1       -0.0799
      3 C           1.3270    0.5792   -2.4084 C.2     1  LIG1       -0.0620
      4 C           2.7955    0.9091   -2.3075 C.2     1  LIG1       -0.0164
      5 C           3.0777    2.1883   -1.9687 C.2     1  LIG1        0.1662
      6 C           2.0277    3.1224   -1.6451 C.2     1  LIG1        0.1659
      7 O           4.3216    2.7515   -1.6594 O.2     1  LIG1       -0.4526
      8 O           2.5757    4.2261   -0.9783 O.2     1  LIG1       -0.4526
      9 C           4.0157    3.9878   -0.9461 C.3     1  LIG1        0.2332
     10 C          -0.9737    1.2522   -2.8891 C.3     1  LIG1       -0.0461
     11 C           0.6650    1.8186    3.1300 C.3     2  LIG2        0.0913
     12 C           0.8243    0.8336    2.0350 C.3     2  LIG2        0.0244
     13 O          -0.6772    2.1284    3.4439 O.3     2  LIG2       -0.3675
     14 C          -0.5534    0.4784    1.5724 C.3     2  LIG2        0.0253
     15 C          -1.3745    1.2980    2.5267 C.3     2  LIG2        0.0915
     16 C          -0.6357   -1.0667    1.7050 C.3     2  LIG2        0.0835
     17 C           1.3991   -0.4223    2.5413 C.3     2  LIG2        0.0916
     18 O           0.5364   -1.5357    2.4319 O.3     2  LIG2       -0.3660
     19 C          -3.0428   -1.8640    0.1679 C.2     2  LIG2       -0.0163
     20 C          -3.0263   -3.0484    0.8379 C.2     2  LIG2        0.1662
     21 C          -1.8149   -3.8288    0.9326 C.2     2  LIG2        0.1660
     22 C          -0.6358   -3.3151    0.4985 C.2     2  LIG2       -0.0174
     23 C          -0.6390   -1.7801    0.3101 C.2     2  LIG2       -0.0506
     24 C          -1.7444   -1.4838   -0.4411 C.2     2  LIG2       -0.0594
     25 O          -4.1060   -3.8029    1.3112 O.2     2  LIG2       -0.4526
     26 O          -2.1314   -5.1427    1.2979 O.2     2  LIG2       -0.4526
     27 C          -3.5863   -5.1644    1.4214 C.3     2  LIG2        0.2332
     28 H          -0.0777    3.3562   -1.3466 H       1  LIG1        0.0652
     29 H           0.8502    1.9462   -3.8129 H       1  LIG1        0.0573
     30 H           0.9509   -0.4138   -2.1752 H       1  LIG1        0.0616
     31 H           3.5768    0.1628   -2.4240 H       1  LIG1        0.0655
     32 H           4.3568    3.9051    0.1112 H       1  LIG1        0.1166
     33 H           4.5460    4.8383   -1.4330 H       1  LIG1        0.1166
     34 H          -1.1135    0.3803   -3.5693 H       1  LIG1        0.0272
     35 H          -1.3785    0.9958   -1.8842 H       1  LIG1        0.0272
     36 H          -1.5587    2.1079   -3.2976 H       1  LIG1        0.0272
     37 H           1.5025    2.2556    3.6708 H       2  LIG2        0.0626
     38 H           1.4354    1.2518    1.2021 H       2  LIG2        0.0357
     39 H          -0.7443    0.8516    0.5401 H       2  LIG2        0.0359
     40 H          -2.4622    1.2761    2.5103 H       2  LIG2        0.0626
     41 H          -1.5329   -1.3351    2.3113 H       2  LIG2        0.0644
     42 H           2.3969   -0.5013    2.9685 H       2  LIG2        0.0626
     43 H          -3.9625   -1.3076    0.0099 H       2  LIG2        0.0655
     44 H           0.2161   -3.9473    0.2624 H       2  LIG2        0.0653
     45 H           0.2970   -1.4399   -0.1858 H       2  LIG2        0.0601
     46 H          -1.8664   -1.7833   -1.4336 H       2  LIG2        0.0617
     47 H          -3.8723   -5.5986    2.4061 H       2  LIG2        0.1166
     48 H          -4.0168   -5.7953    0.6091 H       2  LIG2        0.1166
@<TRIPOS>BOND
     1     1     2    1
     2     1     6    2
     3     1    28    1
     4     2     3    2
     5     2    10    1
     6     2    29    1
     7     3     4    1
     8     3    30    1
     9     4     5    2
    10     4    31    1
    11     5     6    1
    12     5     7    1
    13     6     8    1
    14     7     9    1
    15     8     9    1
    16     9    32    1
    17     9    33    1
    18    10    34    1
    19    10    35    1
    20    10    36    1
    21    11    13    1
    22    11    12    1
    23    11    37    1
    24    12    14    1
    25    12    17    1
    26    12    38    1
    27    13    15    1
    28    14    15    1
    29    14    16    1
    30    14    39    1
    31    15    40    1
    32    16    18    1
    33    16    23    1
    34    16    41    1
    35    17    18    1
    36    17    42    1
    37    19    20    2
    38    19    24    1
    39    19    43    1
    40    20    21    1
    41    20    25    1
    42    21    22    2
    43    21    26    1
    44    22    23    1
    45    22    44    1
    46    23    24    2
    47    23    45    1
    48    24    46    1
    49    25    27    1
    50    26    27    1
    51    27    47    1
    52    27    48    1
