@<TRIPOS>MOLECULE
# University of Indonesia
# Herbal Database
# Metabolite Name:(-)-Blumealactone A
M00012084.mol2
 46 48 0 0 0
SMALL
GASTEIGER
Energy = 0

@<TRIPOS>ATOM
      1 C          -4.2601   -0.6979    1.2296 C.3     1  LIG1       -0.0280
      2 C          -3.9023    0.6353    0.6900 C.3     1  LIG1       -0.0004
      3 C          -3.5975   -1.9781    0.8864 C.3     1  LIG1       -0.0246
      4 C          -2.6179    0.9061   -0.0359 C.3     1  LIG1        0.1007
      5 C          -2.9092   -2.2494   -0.3972 C.3     1  LIG1        0.0216
      6 C          -1.3531    0.8681    0.7764 C.3     1  LIG1        0.1325
      7 C          -0.0429    0.4959    0.1190 C.3     1  LIG1        0.1946
      8 C          -1.4262   -2.4439   -0.4849 C.3     1  LIG1        0.1837
      9 C          -0.5122   -2.0566    0.6599 C.3     1  LIG1        0.1490
     10 C           0.4751   -0.9201    0.3058 C.3     1  LIG1        0.0695
     11 C          -2.6070    0.9331   -1.5697 C.3     1  LIG1       -0.0329
     12 O          -1.9836    2.1219    0.4226 O.3     1  LIG1       -0.3604
     13 O           0.5995    1.3472   -0.8294 O.3     1  LIG1       -0.4471
     14 C           1.5472   -1.1041    1.4055 C.2     1  LIG1       -0.0046
     15 O           0.2949   -3.1529    1.1344 O.3     1  LIG1       -0.4546
     16 O          -0.9521   -2.9020   -1.5213 O.3     1  LIG1       -0.2198
     17 C          -3.7610   -2.3233   -1.6059 C.3     1  LIG1       -0.0429
     18 C           2.7778   -0.5032    1.1418 C.2     1  LIG1       -0.1202
     19 C           1.4909   -2.5842    1.6058 C.2     1  LIG1        0.3279
     20 O           2.4449   -3.2864    1.9133 O.2     1  LIG1       -0.2460
     21 C           1.1665    2.5331   -0.2717 C.2     1  LIG1        0.3356
     22 C           2.6298    2.8217   -0.4508 C.2     1  LIG1        0.0330
     23 O           0.4551    3.3329    0.3279 O.2     1  LIG1       -0.2453
     24 C           3.2001    4.0146    0.2415 C.3     1  LIG1       -0.0170
     25 C           3.3740    1.9959   -1.2350 C.2     1  LIG1       -0.0738
     26 C           4.8218    2.1257   -1.5130 C.3     1  LIG1       -0.0305
     27 H          -5.0611   -0.7357    1.9650 H       1  LIG1        0.0310
     28 H          -4.5551    1.4756    0.9144 H       1  LIG1        0.0336
     29 H          -3.6307   -2.7822    1.6188 H       1  LIG1        0.0313
     30 H          -1.4261    0.7530    1.8811 H       1  LIG1        0.0667
     31 H          -1.1236   -1.7290    1.5315 H       1  LIG1        0.0773
     32 H           0.9415   -1.1987   -0.6716 H       1  LIG1        0.0423
     33 H          -2.1549   -0.0028   -1.9619 H       1  LIG1        0.0258
     34 H          -2.0136    1.7892   -1.9668 H       1  LIG1        0.0258
     35 H          -3.6451    1.0213   -1.9614 H       1  LIG1        0.0258
     36 H           1.1535   -0.6720    2.3575 H       1  LIG1        0.0638
     37 H          -4.8374   -2.1807   -1.5344 H       1  LIG1        0.0272
     38 H          -3.3237   -2.5176   -2.5831 H       1  LIG1        0.0272
     39 H           3.1807   -0.8287    0.1547 H       1  LIG1        0.0463
     40 H           2.6790    0.6030    1.1580 H       1  LIG1        0.0463
     41 H           3.5163   -0.7805    1.9297 H       1  LIG1        0.0463
     42 H           2.5659    4.6445    0.8617 H       1  LIG1        0.0318
     43 H           4.2435    4.2976    0.1555 H       1  LIG1        0.0318
     44 H           2.8967    1.1464   -1.7220 H       1  LIG1        0.0577
     45 H           5.2979    1.3919   -2.1597 H       1  LIG1        0.0310
     46 H           5.4381    2.9188   -1.1028 H       1  LIG1        0.0310
@<TRIPOS>BOND
     1     1     2    1
     2     1     3    1
     3     1    27    1
     4     2     4    1
     5     2    28    1
     6     3     5    1
     7     3    29    1
     8     4     6    1
     9     4    11    1
    10     4    12    1
    11     5     8    1
    12     5    17    1
    13     6     7    1
    14     6    12    1
    15     6    30    1
    16     7    10    1
    17     7    13    1
    18     8     9    1
    19     8    16    1
    20     9    10    1
    21     9    15    1
    22     9    31    1
    23    10    14    1
    24    10    32    1
    25    11    33    1
    26    11    34    1
    27    11    35    1
    28    13    21    1
    29    14    18    2
    30    14    19    1
    31    14    36    1
    32    15    19    1
    33    17    37    1
    34    17    38    1
    35    18    39    1
    36    18    40    1
    37    18    41    1
    38    19    20    2
    39    21    22    1
    40    21    23    2
    41    22    24    1
    42    22    25    2
    43    24    42    1
    44    24    43    1
    45    25    26    1
    46    25    44    1
    47    26    45    1
    48    26    46    1
