@<TRIPOS>MOLECULE
# University of Indonesia
# Herbal Database
# Metabolite Name:(-)-Carvotanacetone
M00010943.mol2
 24 24 0 0 0
SMALL
GASTEIGER
Energy = 0

@<TRIPOS>ATOM
      1 C          -1.5812    0.3030    1.0810 C.2     1  LIG1        0.1630
      2 C          -1.8286   -1.0200    0.4027 C.2     1  LIG1       -0.0080
      3 C          -0.8023   -1.9074    0.2846 C.2     1  LIG1       -0.0736
      4 C           0.5611   -1.5250    0.7601 C.3     1  LIG1       -0.0120
      5 C           0.9103   -0.0499    0.7092 C.3     1  LIG1       -0.0214
      6 C          -0.1918    0.6078    1.5112 C.3     1  LIG1        0.0355
      7 O          -2.4925    1.0830    1.3374 O.2     1  LIG1       -0.2921
      8 C          -3.1765   -1.3760   -0.0937 C.3     1  LIG1       -0.0206
      9 C           0.9672    0.4816   -0.7571 C.3     1  LIG1       -0.0427
     10 C           1.2016    2.0018   -0.8080 C.3     1  LIG1       -0.0624
     11 C           2.0618   -0.2261   -1.5748 C.3     1  LIG1       -0.0624
     12 H          -0.9641   -2.9034   -0.1241 H       1  LIG1        0.0579
     13 H           1.2576   -2.2657    1.1466 H       1  LIG1        0.0352
     14 H           1.9074    0.1475    1.1678 H       1  LIG1        0.0316
     15 H           0.0155    1.2358    2.3739 H       1  LIG1        0.0391
     16 H          -4.0041   -0.6787    0.0157 H       1  LIG1        0.0317
     17 H          -3.3614   -2.3354   -0.5724 H       1  LIG1        0.0317
     18 H          -0.0009    0.2874   -1.2759 H       1  LIG1        0.0299
     19 H           1.2568    2.3533   -1.8640 H       1  LIG1        0.0232
     20 H           2.1512    2.2712   -0.2914 H       1  LIG1        0.0232
     21 H           0.3609    2.5435   -0.3183 H       1  LIG1        0.0232
     22 H           2.0807    0.1641   -2.6183 H       1  LIG1        0.0232
     23 H           1.8649   -1.3206   -1.6281 H       1  LIG1        0.0232
     24 H           3.0637   -0.0645   -1.1147 H       1  LIG1        0.0232
@<TRIPOS>BOND
     1     1     2    1
     2     1     6    1
     3     1     7    2
     4     2     3    2
     5     2     8    1
     6     3     4    1
     7     3    12    1
     8     4     5    1
     9     4    13    1
    10     5     6    1
    11     5     9    1
    12     5    14    1
    13     6    15    1
    14     8    16    1
    15     8    17    1
    16     9    10    1
    17     9    11    1
    18     9    18    1
    19    10    19    1
    20    10    20    1
    21    10    21    1
    22    11    22    1
    23    11    23    1
    24    11    24    1
