@<TRIPOS>MOLECULE
# University of Indonesia
# Herbal Database
# Metabolite Name:(+)-Syringaresinol O-beta-D-glucoside
M00002632.mol2
 45 49 0 0 0
SMALL
GASTEIGER
Energy = 0

@<TRIPOS>ATOM
      1 C          -1.7768   -1.1182    1.2456 C.ar    1  LIG1        0.1753
      2 C          -1.7117   -2.4781    1.5689 C.ar    1  LIG1        0.2086
      3 C          -0.5247   -3.3062    1.0195 C.ar    1  LIG1        0.1753
      4 C           0.3109   -2.6050    0.2692 C.ar    1  LIG1        0.0379
      5 C           0.3531   -1.2348   -0.1796 C.ar    1  LIG1        0.0044
      6 C          -0.6868   -0.6953    0.3878 C.ar    1  LIG1        0.0379
      7 O          -2.7069   -0.2068    1.7886 O.3     1  LIG1       -0.4683
      8 C          -2.7792    0.9456    2.1155 C.3     1  LIG1        0.2526
      9 O          -2.6651   -3.1427    2.4002 O.3     1  LIG1       -0.4442
     10 C          -3.9582   -3.2168    1.8049 C.3     1  LIG1        0.3220
     11 C          -4.5264   -4.5650    1.5278 C.3     1  LIG1        0.2542
     12 C          -5.8653   -4.6618    0.9159 C.3     1  LIG1        0.2211
     13 C          -6.6009   -3.4211    0.6069 C.3     1  LIG1        0.2145
     14 C          -5.9616   -2.1211    0.9244 C.3     1  LIG1        0.1846
     15 O          -4.6621   -2.0068    1.5115 O.3     1  LIG1       -0.3157
     16 C          -6.6704   -0.8985    0.6317 C.3     1  LIG1        0.2142
     17 O          -7.3334    0.2516    0.3572 O.3     1  LIG1       -0.2176
     18 O          -7.7177   -3.4616    0.0937 O.3     1  LIG1       -0.2176
     19 O          -6.3598   -5.7586    0.6626 O.3     1  LIG1       -0.2173
     20 O          -3.8829   -5.5774    1.7974 O.3     1  LIG1       -0.2135
     21 O          -0.2690   -4.6510    1.3594 O.3     1  LIG1       -0.4683
     22 C           0.9227   -4.5661    1.2483 C.3     1  LIG1        0.2526
     23 C           1.7623    1.0025   -0.6931 C.3     1  LIG1        0.0326
     24 C           2.4847    1.0807    0.6728 C.3     1  LIG1        0.0326
     25 C           1.4633   -0.5145   -0.9023 C.3     1  LIG1        0.0920
     26 C           3.1437   -0.0895    0.1948 C.3     1  LIG1        0.1400
     27 O           2.7745   -1.1360   -0.6096 O.3     1  LIG1       -0.3588
     28 C           2.7901    2.6100    0.8099 C.3     1  LIG1        0.0920
     29 C           1.0827    2.1665   -0.2400 C.3     1  LIG1        0.1400
     30 O           1.4683    3.2258    0.5383 O.3     1  LIG1       -0.3588
     31 H           2.3658    1.3633   -1.5732 H       1  LIG1        0.0364
     32 H           1.8755    0.7381    1.5550 H       1  LIG1        0.0364
     33 H           1.2391   -0.6592   -1.9846 H       1  LIG1        0.0651
     34 H           3.0635    2.8129    1.8708 H       1  LIG1        0.0651
     35 C           3.8111    4.5006   -0.7554 C.ar    1  LIG1        0.0381
     36 C           3.8713    3.2534   -0.0263 C.ar    1  LIG1        0.0044
     37 C           5.9084    3.0105   -1.5809 C.ar    1  LIG1        0.1802
     38 C           5.6712    4.2253   -2.2036 C.ar    1  LIG1        0.2627
     39 C           4.4913    5.0893   -1.7241 C.ar    1  LIG1        0.1802
     40 C           4.9332    2.6873   -0.5455 C.ar    1  LIG1        0.0381
     41 O           4.0631    6.2949   -2.3193 O.3     1  LIG1       -0.4681
     42 C           4.3986    6.1403   -3.4610 C.3     1  LIG1        0.2526
     43 O           6.3866    4.6069   -3.1264 O.3     1  LIG1       -0.2801
     44 O           6.9282    2.1132   -1.9688 O.3     1  LIG1       -0.4681
     45 C           6.9327    0.9153   -1.9019 C.3     1  LIG1        0.2526
@<TRIPOS>BOND
     1     1     2   ar
     2     1     6   ar
     3     1     7    1
     4     2     3   ar
     5     2     9    1
     6     3     4   ar
     7     3    21    1
     8     4     5   ar
     9     5     6   ar
    10     5    25    1
    11     7     8    1
    12     9    10    1
    13    10    11    1
    14    10    15    1
    15    11    12    1
    16    11    20    1
    17    12    13    1
    18    12    19    1
    19    13    14    1
    20    13    18    1
    21    14    15    1
    22    14    16    1
    23    16    17    1
    24    21    22    1
    25    23    25    1
    26    23    24    1
    27    23    29    1
    28    23    31    1
    29    24    26    1
    30    24    28    1
    31    24    32    1
    32    25    27    1
    33    25    33    1
    34    26    27    1
    35    28    30    1
    36    28    34    1
    37    28    36    1
    38    29    30    1
    39    35    36   ar
    40    35    39   ar
    41    36    40   ar
    42    37    38   ar
    43    37    40   ar
    44    37    44    1
    45    38    39   ar
    46    38    43    1
    47    39    41    1
    48    41    42    1
    49    44    45    1
