@<TRIPOS>MOLECULE
# University of Indonesia
# Herbal Database
# Metabolite Name:(-)-Pinocampheol
M00011031.mol2
 27 28 0 0 0
SMALL
GASTEIGER
Energy = 0

@<TRIPOS>ATOM
      1 C          -0.7402    0.7822   -0.1247 C.3     1  LIG1       -0.0121
      2 C          -1.3728   -0.3225   -1.1032 C.3     1  LIG1       -0.0254
      3 C           0.0246   -1.0246   -0.6859 C.3     1  LIG1       -0.0321
      4 C           1.5627   -0.6053   -0.9072 C.3     1  LIG1       -0.0196
      5 C           1.7935    0.9415   -0.9105 C.3     1  LIG1        0.0766
      6 C           0.6032    1.5649   -0.1624 C.2     1  LIG1       -0.0449
      7 C           0.7606    2.8107    0.6194 C.2     1  LIG1       -0.0967
      8 C          -2.7748    0.2628   -0.5301 C.3     1  LIG1       -0.0590
      9 C          -1.9810   -1.8274   -1.0411 C.3     1  LIG1       -0.0590
     10 O           1.8115    1.4367   -2.2611 O.3     1  LIG1       -0.3875
     11 C          -0.0172   -0.2952    0.6713 C.3     1  LIG1       -0.0425
     12 H          -0.6401    1.3534   -1.0946 H       1  LIG1        0.0352
     13 H           0.0730   -0.7612   -1.7870 H       1  LIG1        0.0307
     14 H           2.0612   -1.0543   -1.8117 H       1  LIG1        0.0296
     15 H           2.1829   -1.0429   -0.0836 H       1  LIG1        0.0296
     16 H           2.7582    1.1921   -0.4111 H       1  LIG1        0.0640
     17 H           1.7106    3.3394    0.6290 H       1  LIG1        0.0535
     18 H          -0.0773    3.2080    1.1875 H       1  LIG1        0.0535
     19 H          -3.6428   -0.0117   -1.1767 H       1  LIG1        0.0235
     20 H          -2.9288    1.3772   -0.5883 H       1  LIG1        0.0235
     21 H          -3.0316   -0.0646    0.5114 H       1  LIG1        0.0235
     22 H          -1.4039   -2.6230   -1.5875 H       1  LIG1        0.0235
     23 H          -2.1703   -2.2012   -0.0030 H       1  LIG1        0.0235
     24 H          -2.9352   -1.9408   -1.6102 H       1  LIG1        0.0235
     25 H           2.6582    1.8883   -2.6463 H       1  LIG1        0.2102
     26 H          -0.2921   -1.2998    1.0718 H       1  LIG1        0.0274
     27 H          -0.8292   -0.1000    1.4139 H       1  LIG1        0.0274
@<TRIPOS>BOND
     1     1     2    1
     2     1     6    1
     3     1    11    1
     4     1    12    1
     5     2     3    1
     6     2     8    1
     7     2     9    1
     8     3     4    1
     9     3    11    1
    10     3    13    1
    11     4     5    1
    12     4    14    1
    13     4    15    1
    14     5     6    1
    15     5    10    1
    16     5    16    1
    17     6     7    2
    18     7    17    1
    19     7    18    1
    20     8    19    1
    21     8    20    1
    22     8    21    1
    23     9    22    1
    24     9    23    1
    25     9    24    1
    26    10    25    1
    27    11    26    1
    28    11    27    1
