@<TRIPOS>MOLECULE
# University of Indonesia
# Herbal Database
# Metabolite Name:(-)-Blumealactone C
M00012086.mol2
 40 42 0 0 0
SMALL
GASTEIGER
Energy = 0

@<TRIPOS>ATOM
      1 C          -2.5087    1.0732   -0.6081 C.3     1  LIG1       -0.0279
      2 C          -2.3225    2.1624    0.3580 C.3     1  LIG1       -0.0004
      3 C          -3.1217   -0.1785   -0.1772 C.3     1  LIG1       -0.0236
      4 C          -1.1798    3.1293    0.2343 C.3     1  LIG1        0.0997
      5 C          -2.4392   -1.4783   -0.3885 C.3     1  LIG1        0.0314
      6 C           0.1634    2.7482   -0.3304 C.3     1  LIG1        0.1238
      7 C           0.4685    1.4914   -1.1097 C.3     1  LIG1        0.1777
      8 C          -0.9459   -1.6949   -0.3069 C.3     1  LIG1        0.2003
      9 C          -0.0301   -0.6846    0.4136 C.3     1  LIG1        0.1566
     10 C           0.9141    0.1882   -0.4589 C.3     1  LIG1        0.0617
     11 C          -1.4266    4.5648    0.6945 C.3     1  LIG1       -0.0330
     12 O          -0.1380    2.5546    1.0682 O.3     1  LIG1       -0.3615
     13 O           0.3907    1.5535   -2.3335 O.3     1  LIG1       -0.2208
     14 C           2.1916    0.3420    0.4025 C.2     1  LIG1       -0.0055
     15 O           0.8064   -1.3680    1.3717 O.3     1  LIG1       -0.4536
     16 O          -0.5236   -2.9850   -0.7849 O.3     1  LIG1       -0.4494
     17 C          -3.3426   -2.6260   -0.6413 C.3     1  LIG1       -0.0419
     18 C           3.3599    0.5444   -0.3376 C.2     1  LIG1       -0.1202
     19 C           2.0986   -0.8296    1.3128 C.2     1  LIG1        0.3279
     20 O           3.0571   -1.4565    1.7442 O.2     1  LIG1       -0.2460
     21 C           0.8452   -3.3554   -0.6840 C.2     1  LIG1        0.3084
     22 O           1.7118   -2.7550   -1.3070 O.2     1  LIG1       -0.2508
     23 C           1.2148   -4.5083    0.1391 C.3     1  LIG1        0.0550
     24 H          -2.1012    1.1357   -1.6129 H       1  LIG1        0.0310
     25 H          -3.0052    2.2521    1.2011 H       1  LIG1        0.0336
     26 H          -4.0927   -0.1484    0.3147 H       1  LIG1        0.0313
     27 H           0.9023    3.5722   -0.4484 H       1  LIG1        0.0656
     28 H          -0.6620   -0.0094    1.0301 H       1  LIG1        0.0783
     29 H           1.1840   -0.4571   -1.3235 H       1  LIG1        0.0413
     30 H          -2.1524    5.0481    0.0030 H       1  LIG1        0.0258
     31 H          -1.8534    4.5673    1.7233 H       1  LIG1        0.0258
     32 H          -0.4888    5.1656    0.7000 H       1  LIG1        0.0258
     33 H           2.0667    1.2129    1.0875 H       1  LIG1        0.0637
     34 H          -2.9525   -3.6330   -0.7682 H       1  LIG1        0.0272
     35 H          -4.4196   -2.4817   -0.7009 H       1  LIG1        0.0272
     36 H           3.2798    1.4656   -0.9600 H       1  LIG1        0.0463
     37 H           4.2309    0.6658    0.3480 H       1  LIG1        0.0463
     38 H           3.5612   -0.3269   -1.0038 H       1  LIG1        0.0463
     39 H           2.2547   -4.8154    0.2163 H       1  LIG1        0.0383
     40 H           0.4475   -5.0566    0.6778 H       1  LIG1        0.0383
@<TRIPOS>BOND
     1     1     2    1
     2     1     3    1
     3     1    24    1
     4     2     4    1
     5     2    25    1
     6     3     5    1
     7     3    26    1
     8     4     6    1
     9     4    11    1
    10     4    12    1
    11     5     8    1
    12     5    17    1
    13     6     7    1
    14     6    12    1
    15     6    27    1
    16     7    10    1
    17     7    13    1
    18     8     9    1
    19     8    16    1
    20     9    10    1
    21     9    15    1
    22     9    28    1
    23    10    14    1
    24    10    29    1
    25    11    30    1
    26    11    31    1
    27    11    32    1
    28    14    18    2
    29    14    19    1
    30    14    33    1
    31    15    19    1
    32    16    21    1
    33    17    34    1
    34    17    35    1
    35    18    36    1
    36    18    37    1
    37    18    38    1
    38    19    20    2
    39    21    22    2
    40    21    23    1
    41    23    39    1
    42    23    40    1
