@<TRIPOS>MOLECULE
# University of Indonesia
# Herbal Database
# Metabolite Name:(+)-alpha-Cyperone
M00012759.mol2
 34 35 0 0 0
SMALL
GASTEIGER
Energy = 0

@<TRIPOS>ATOM
      1 C          -3.9549    1.2607   -1.0519 C.3     1  LIG1        0.0358
      2 C          -3.9538   -0.1988   -1.1854 C.2     1  LIG1        0.1633
      3 C          -2.7193   -0.9912   -0.8809 C.2     1  LIG1       -0.0043
      4 C          -1.5878   -0.3661   -0.4147 C.2     1  LIG1       -0.0524
      5 C          -1.5144    1.1544   -0.1855 C.3     1  LIG1       -0.0030
      6 C          -2.7554    1.9417   -0.5595 C.3     1  LIG1       -0.0168
      7 C          -0.3025   -1.1140   -0.1366 C.3     1  LIG1       -0.0054
      8 C           1.0820   -0.4790   -0.3335 C.3     1  LIG1       -0.0165
      9 C           0.9583    0.9482   -0.8669 C.3     1  LIG1       -0.0269
     10 C          -0.3539    1.6129   -1.0333 C.3     1  LIG1       -0.0241
     11 C          -1.2761    1.4651    1.3071 C.3     1  LIG1       -0.0553
     12 O          -4.9860   -0.7460   -1.5636 O.2     1  LIG1       -0.2921
     13 C          -2.7848   -2.4639   -1.1334 C.3     1  LIG1       -0.0203
     14 C           1.9896   -0.6029    0.9455 C.2     1  LIG1       -0.1107
     15 C           3.2584    0.2810    0.8759 C.3     1  LIG1       -0.0504
     16 C           2.3669   -1.9300    1.2130 C.2     1  LIG1       -0.1304
     17 H          -4.8420    1.8354   -1.3094 H       1  LIG1        0.0391
     18 H          -2.7704    3.0261   -0.4562 H       1  LIG1        0.0319
     19 H          -0.3480   -2.1550    0.1612 H       1  LIG1        0.0358
     20 H           1.5699   -1.0597   -1.1510 H       1  LIG1        0.0349
     21 H           1.8477    1.4934   -1.1738 H       1  LIG1        0.0312
     22 H          -0.4631    2.3976   -1.7808 H       1  LIG1        0.0315
     23 H          -2.1371    1.1049    1.9169 H       1  LIG1        0.0238
     24 H          -1.1642    2.5626    1.4700 H       1  LIG1        0.0238
     25 H          -0.3640    0.9836    1.7025 H       1  LIG1        0.0238
     26 H          -3.7153   -2.9236   -1.4594 H       1  LIG1        0.0317
     27 H          -1.9307   -3.1222   -1.0190 H       1  LIG1        0.0317
     28 H           1.4217   -0.2399    1.8302 H       1  LIG1        0.0522
     29 H           3.9223    0.1178    1.7567 H       1  LIG1        0.0269
     30 H           2.9826    1.3596    0.8864 H       1  LIG1        0.0269
     31 H           3.8384    0.0653   -0.0511 H       1  LIG1        0.0269
     32 H           2.9953   -1.9920    2.1330 H       1  LIG1        0.0458
     33 H           2.9454   -2.3612    0.3622 H       1  LIG1        0.0458
     34 H           1.4798   -2.5737    1.4023 H       1  LIG1        0.0458
@<TRIPOS>BOND
     1     1     2    1
     2     1     6    1
     3     1    17    1
     4     2     3    1
     5     2    12    2
     6     3     4    2
     7     3    13    1
     8     4     5    1
     9     4     7    1
    10     5     6    1
    11     5    10    1
    12     5    11    1
    13     6    18    1
    14     7     8    1
    15     7    19    1
    16     8     9    1
    17     8    14    1
    18     8    20    1
    19     9    10    1
    20     9    21    1
    21    10    22    1
    22    11    23    1
    23    11    24    1
    24    11    25    1
    25    13    26    1
    26    13    27    1
    27    14    15    1
    28    14    16    2
    29    14    28    1
    30    15    29    1
    31    15    30    1
    32    15    31    1
    33    16    32    1
    34    16    33    1
    35    16    34    1
