@<TRIPOS>MOLECULE
# University of Indonesia
# Herbal Database
# Metabolite Name:(-)-Cubebin
M00002591.mol2
 28 32 0 0 0
SMALL
GASTEIGER
Energy = 0

@<TRIPOS>ATOM
      1 C          -4.2753    0.0083    1.1019 C.ar    1  LIG1        0.0359
      2 C          -3.2014   -1.8807    0.5821 C.ar    1  LIG1       -0.0010
      3 C          -3.1301   -0.4139    0.5614 C.ar    1  LIG1       -0.0192
      4 C          -4.1815   -2.5820    1.0365 C.ar    1  LIG1        0.0399
      5 C          -5.4623   -0.6827    1.6536 C.ar    1  LIG1        0.1761
      6 C          -5.4167   -2.0722    1.6209 C.ar    1  LIG1        0.1764
      7 O          -6.6482   -0.1343    2.2148 O.3     1  LIG1       -0.4346
      8 O          -6.5527   -2.7439    2.1489 O.3     1  LIG1       -0.4346
      9 C          -6.9550   -1.4564    2.3484 C.3     1  LIG1        0.4294
     10 C          -2.0706    0.4256    0.0747 C.3     1  LIG1        0.0248
     11 C          -0.9947    1.2922   -0.4177 C.3     1  LIG1        0.0142
     12 C          -0.7189    2.3336    0.5060 C.3     1  LIG1        0.1410
     13 C           0.4430    0.7794   -0.1413 C.3     1  LIG1        0.0392
     14 O           0.2159    2.8548    1.3335 O.3     1  LIG1       -0.3291
     15 C           1.0454    1.7745    0.8983 C.3     1  LIG1        0.2650
     16 C           1.2237    0.7233   -1.3982 C.3     1  LIG1        0.0272
     17 C           2.6126    0.3320   -1.4150 C.ar    1  LIG1       -0.0191
     18 C           5.1245    0.8316   -1.8080 C.ar    1  LIG1        0.1761
     19 C           3.6607    1.0831   -1.7572 C.ar    1  LIG1        0.0359
     20 C           5.5252   -0.4514   -1.4271 C.ar    1  LIG1        0.1764
     21 C           3.1873   -0.9514   -1.0542 C.ar    1  LIG1       -0.0010
     22 C           4.4145   -1.3222   -1.0446 C.ar    1  LIG1        0.0399
     23 O           6.9243   -0.6977   -1.4751 O.3     1  LIG1       -0.4346
     24 O           6.1809    1.7036   -2.1892 O.3     1  LIG1       -0.4346
     25 C           6.9255    0.5991   -1.8969 C.3     1  LIG1        0.4294
     26 O           2.1803    1.6537    1.3487 O.3     1  LIG1       -0.1903
     27 H          -1.1852    1.6974   -1.4384 H       1  LIG1        0.0344
     28 H           0.4317   -0.2386    0.3166 H       1  LIG1        0.0369
@<TRIPOS>BOND
     1     1     5   ar
     2     1     3   ar
     3     2     3   ar
     4     2     4   ar
     5     3    10    1
     6     4     6   ar
     7     5     6   ar
     8     5     7    1
     9     6     8    1
    10     7     9    1
    11     8     9    1
    12    10    11    1
    13    11    13    1
    14    11    12    1
    15    11    27    1
    16    12    14    1
    17    13    15    1
    18    13    16    1
    19    13    28    1
    20    14    15    1
    21    15    26    1
    22    16    17    1
    23    17    19   ar
    24    17    21   ar
    25    18    19   ar
    26    18    20   ar
    27    18    24    1
    28    20    22   ar
    29    20    23    1
    30    21    22   ar
    31    23    25    1
    32    24    25    1
