@<TRIPOS>MOLECULE
# University of Indonesia
# Herbal Database
# Metabolite Name:(-)-Apparicine
M00001689.mol2
 39 42 0 0 0
SMALL
GASTEIGER
Energy = 0

@<TRIPOS>ATOM
      1 C          -2.2453    0.8378    0.4339 C.ar    1  LIG1        0.0050
      2 C          -4.3468   -0.1357   -0.3551 C.ar    1  LIG1       -0.0378
      3 C          -2.9272   -0.2323    0.0470 C.ar    1  LIG1        0.0472
      4 C          -4.9379    1.0770   -0.3296 C.ar    1  LIG1       -0.0598
      5 C          -2.8821    2.1735    0.4805 C.ar    1  LIG1       -0.0523
      6 C          -4.1736    2.2833    0.1085 C.ar    1  LIG1       -0.0611
      7 N          -2.0702   -1.3638    0.0558 N.ar    1  LIG1       -0.3546
      8 C          -0.8630    0.4355    0.6865 C.ar    1  LIG1        0.0036
      9 C          -0.7777   -0.8926    0.4720 C.ar    1  LIG1        0.0408
     10 C           0.2416    1.3683    1.0090 C.3     1  LIG1        0.0585
     11 C           0.4534   -1.7821    0.6747 C.2     1  LIG1       -0.0645
     12 C           1.7673   -1.3220   -0.0824 C.3     1  LIG1       -0.0008
     13 C           2.8661   -0.7474    0.8956 C.2     1  LIG1       -0.0837
     14 C           2.5808    0.7731    1.1909 C.3     1  LIG1        0.0155
     15 N           1.4657    1.3483    0.3999 N.3     1  LIG1       -0.2855
     16 C           0.1484   -3.1272    0.4165 C.2     1  LIG1       -0.1247
     17 C           4.1362   -1.1368    0.5243 C.2     1  LIG1       -0.0893
     18 C           5.1600   -0.2869   -0.0997 C.3     1  LIG1       -0.0315
     19 C           1.5701   -0.4203   -1.2782 C.3     1  LIG1       -0.0093
     20 C           1.4689    1.0020   -0.9218 C.3     1  LIG1        0.0312
     21 H          -4.8938   -1.0194   -0.6772 H       1  LIG1        0.0638
     22 H          -5.9772    1.1800   -0.6337 H       1  LIG1        0.0618
     23 H          -2.3176    3.0485    0.7977 H       1  LIG1        0.0624
     24 H          -4.6623    3.2550    0.1222 H       1  LIG1        0.0618
     25 H          -2.3304   -2.3479   -0.1935 H       1  LIG1        0.1659
     26 H           0.1253    2.1998    1.6998 H       1  LIG1        0.0532
     27 H           0.6249   -1.7201    1.7745 H       1  LIG1        0.0590
     28 H           2.2175   -2.2295   -0.5566 H       1  LIG1        0.0387
     29 H           2.7220   -1.2370    1.8886 H       1  LIG1        0.0548
     30 H           2.3940    0.9036    2.2849 H       1  LIG1        0.0467
     31 H           3.4807    1.3979    1.0000 H       1  LIG1        0.0467
     32 H          -0.0912   -3.2746   -0.6629 H       1  LIG1        0.0461
     33 H          -0.7199   -3.4690    1.0275 H       1  LIG1        0.0461
     34 H           1.0097   -3.7843    0.6819 H       1  LIG1        0.0461
     35 H           4.5959   -1.9629    1.0541 H       1  LIG1        0.0567
     36 H           4.8993    0.6210   -0.6318 H       1  LIG1        0.0310
     37 H           6.2028   -0.5887   -0.0558 H       1  LIG1        0.0310
     38 H           1.6059   -0.7663   -2.3066 H       1  LIG1        0.0328
     39 H           1.3731    1.8347   -1.6160 H       1  LIG1        0.0481
@<TRIPOS>BOND
     1     1     5   ar
     2     1     3   ar
     3     1     8   ar
     4     2     3   ar
     5     2     4   ar
     6     2    21    1
     7     3     7   ar
     8     4     6   ar
     9     4    22    1
    10     5     6   ar
    11     5    23    1
    12     6    24    1
    13     7     9   ar
    14     7    25    1
    15     8     9   ar
    16     8    10    1
    17     9    11    1
    18    10    15    1
    19    10    26    1
    20    11    12    1
    21    11    16    2
    22    11    27    1
    23    12    13    1
    24    12    19    1
    25    12    28    1
    26    13    14    1
    27    13    17    2
    28    13    29    1
    29    14    15    1
    30    14    30    1
    31    14    31    1
    32    15    20    1
    33    16    32    1
    34    16    33    1
    35    16    34    1
    36    17    18    1
    37    17    35    1
    38    18    36    1
    39    18    37    1
    40    19    20    1
    41    19    38    1
    42    20    39    1
