@<TRIPOS>MOLECULE
# University of Indonesia
# Herbal Database
# Metabolite Name:(-)-Epigallocatechin
M00008818.mol2
 35 38 0 0 0
SMALL
GASTEIGER
Energy = 0

@<TRIPOS>ATOM
      1 C          -5.5826   -0.2632   -1.7985 C.ar    1  LIG1        0.2019
      2 C          -5.7400   -1.4001   -1.1683 C.ar    1  LIG1        0.0839
      3 C          -4.9246   -2.0820   -0.1583 C.ar    1  LIG1        0.1979
      4 C          -3.7585   -1.4042    0.1934 C.ar    1  LIG1        0.0541
      5 C          -3.4298   -0.0750   -0.4829 C.ar    1  LIG1        0.1407
      6 C          -4.3507    0.3003   -1.3371 C.ar    1  LIG1        0.0788
      7 C          -2.8132   -1.8646    1.1956 C.3     1  LIG1        0.0723
      8 C          -1.4793   -1.2205    1.2761 C.3     1  LIG1        0.1559
      9 C          -1.5695    0.3333    1.0898 C.3     1  LIG1        0.1641
     10 O          -2.2903    0.6845   -0.1258 O.3     1  LIG1       -0.4793
     11 C          -0.3167    1.1651    1.1534 C.ar    1  LIG1        0.0195
     12 C           0.8176    0.8217    1.7148 C.ar    1  LIG1        0.0445
     13 C           2.1901    1.3339    1.6431 C.ar    1  LIG1        0.2373
     14 C           2.3528    2.4554    0.8257 C.ar    1  LIG1        0.2727
     15 C           1.1094    3.0179    0.1067 C.ar    1  LIG1        0.2373
     16 C           0.0306    2.3167    0.3710 C.ar    1  LIG1        0.0445
     17 H          -2.1812    0.7116    1.9428 H       1  LIG1        0.0823
     18 H          -1.0882   -1.4147    2.3012 H       1  LIG1        0.0785
     19 O          -0.6128   -1.9211    0.3452 O.3     1  LIG1       -0.4528
     20 O           3.4566    2.9757    0.6732 O.3     1  LIG1       -0.2797
     21 O           3.1125    0.7921    2.2432 O.3     1  LIG1       -0.2830
     22 O          -5.2570   -3.1511    0.3416 O.3     1  LIG1       -0.2867
     23 O          -6.3669    0.2111   -2.6095 O.3     1  LIG1       -0.2864
     24 O           1.0899    3.9968   -0.6308 O.3     1  LIG1       -0.2830
     25 C           0.1276   -1.3954   -0.7456 C.2     1  LIG1        0.3410
     26 C           2.3689   -1.9301    0.2130 C.ar    1  LIG1        0.0520
     27 C           3.8063   -2.0565    0.4360 C.ar    1  LIG1        0.2377
     28 C           4.5915   -1.5031   -0.5689 C.ar    1  LIG1        0.2727
     29 C           3.8742   -0.8451   -1.7622 C.ar    1  LIG1        0.2377
     30 C           2.5569   -0.8937   -1.6765 C.ar    1  LIG1        0.0520
     31 C           1.6039   -1.4167   -0.7219 C.ar    1  LIG1        0.0822
     32 O          -0.4623   -0.9695   -1.7306 O.2     1  LIG1       -0.2449
     33 O           4.4374   -0.3191   -2.7154 O.3     1  LIG1       -0.2830
     34 O           5.8198   -1.5386   -0.5131 O.3     1  LIG1       -0.2797
     35 O           4.2627   -2.6115    1.4306 O.3     1  LIG1       -0.2830
@<TRIPOS>BOND
     1     1     2   ar
     2     1     6   ar
     3     1    23    1
     4     2     3   ar
     5     3     4   ar
     6     3    22    1
     7     4     5   ar
     8     4     7    1
     9     5     6   ar
    10     5    10    1
    11     7     8    1
    12     8     9    1
    13     8    18    1
    14     8    19    1
    15     9    10    1
    16     9    11    1
    17     9    17    1
    18    11    12   ar
    19    11    16   ar
    20    12    13   ar
    21    13    14   ar
    22    13    21    1
    23    14    15   ar
    24    14    20    1
    25    15    16   ar
    26    15    24    1
    27    19    25    1
    28    25    32    2
    29    25    31    1
    30    26    27   ar
    31    26    31   ar
    32    27    28   ar
    33    27    35    1
    34    28    29   ar
    35    28    34    1
    36    29    30   ar
    37    29    33    1
    38    30    31   ar
