@<TRIPOS>MOLECULE
# University of Indonesia
# Herbal Database
# Metabolite Name:(-)-Isomenthone
M00010904
 26 26 0 0 0
SMALL
GASTEIGER
Energy = 0

@<TRIPOS>ATOM
      1 C          -1.4624    1.2373    0.7312 C.3     1  LIG1       -0.0307
      2 C          -1.2279   -0.0748    1.3918 C.3     1  LIG1       -0.0242
      3 C           0.0714   -0.7887    1.0982 C.3     1  LIG1        0.0235
      4 C           1.1310    0.2372    1.4358 C.2     1  LIG1        0.1409
      5 C           1.0618    1.5717    0.7819 C.3     1  LIG1        0.0304
      6 C          -0.2909    2.1431    0.3693 C.3     1  LIG1       -0.0303
      7 C          -0.3062    2.5127   -1.1169 C.3     1  LIG1       -0.0615
      8 C           0.1546   -1.2828   -0.3768 C.3     1  LIG1       -0.0369
      9 C           1.5246   -1.9052   -0.6997 C.3     1  LIG1       -0.0620
     10 C          -0.9525   -2.3025   -0.6993 C.3     1  LIG1       -0.0620
     11 O           2.0138    0.0145    2.2574 O.2     1  LIG1       -0.2968
     12 H          -2.4823    1.5715    0.5531 H       1  LIG1        0.0309
     13 H          -1.9509   -0.4830    2.0945 H       1  LIG1        0.0313
     14 H           0.1767   -1.6970    1.7372 H       1  LIG1        0.0383
     15 H           1.9695    2.1554    0.6465 H       1  LIG1        0.0387
     16 H          -0.4282    3.0847    0.9492 H       1  LIG1        0.0308
     17 H          -1.2804    2.9849   -1.3796 H       1  LIG1        0.0233
     18 H          -0.1542    1.6336   -1.7768 H       1  LIG1        0.0233
     19 H           0.5002    3.2516   -1.3295 H       1  LIG1        0.0233
     20 H           0.0163   -0.4328   -1.0743 H       1  LIG1        0.0302
     21 H           1.5534   -2.2591   -1.7558 H       1  LIG1        0.0233
     22 H           2.3363   -1.1531   -0.5756 H       1  LIG1        0.0233
     23 H           1.7325   -2.7690   -0.0274 H       1  LIG1        0.0233
     24 H          -0.8852   -2.6261   -1.7634 H       1  LIG1        0.0233
     25 H          -1.9591   -1.8512   -0.5480 H       1  LIG1        0.0233
     26 H          -0.8623   -3.2012   -0.0468 H       1  LIG1        0.0233
@<TRIPOS>BOND
     1     1     2    1
     2     1     6    1
     3     1    12    1
     4     2     3    1
     5     2    13    1
     6     3     4    1
     7     3     8    1
     8     3    14    1
     9     4     5    1
    10     4    11    2
    11     5     6    1
    12     5    15    1
    13     6     7    1
    14     6    16    1
    15     7    17    1
    16     7    18    1
    17     7    19    1
    18     8     9    1
    19     8    10    1
    20     8    20    1
    21     9    21    1
    22     9    22    1
    23     9    23    1
    24    10    24    1
    25    10    25    1
    26    10    26    1
