@<TRIPOS>MOLECULE
# University of Indonesia
# Herbal Database
# Metabolite Name:(-)-Khusol
M00020057.mol2
 40 41 0 0 0
SMALL
GASTEIGER
Energy = 0

@<TRIPOS>ATOM
      1 C          -2.0338   -0.2240    0.6200 C.3     1  LIG1       -0.0457
      2 C          -2.0661   -1.7619    0.7321 C.3     1  LIG1       -0.0314
      3 C          -0.9234   -2.4766    0.0337 C.2     1  LIG1       -0.0729
      4 C           0.3301   -1.7167   -0.3900 C.3     1  LIG1       -0.0133
      5 C           0.2482   -0.1496   -0.4354 C.3     1  LIG1       -0.0130
      6 C          -1.2403    0.2772   -0.6078 C.3     1  LIG1       -0.0293
      7 C           1.5146   -2.2384    0.4652 C.3     1  LIG1       -0.0423
      8 C           2.7155   -1.2872    0.4782 C.3     1  LIG1       -0.0314
      9 C           2.2848    0.0677    0.9964 C.2     1  LIG1       -0.0762
     10 C           1.0968    0.5717    0.5983 C.2     1  LIG1       -0.0811
     11 C           3.0595    0.7379    2.1032 C.3     1  LIG1       -0.0438
     12 C          -1.1217   -3.7381   -0.3988 C.2     1  LIG1       -0.0992
     13 C          -1.5694    1.7536   -1.0128 C.3     1  LIG1       -0.0173
     14 C          -1.4425    2.8399    0.0717 C.3     1  LIG1       -0.0601
     15 C          -0.9017    2.2051   -2.3283 C.3     1  LIG1        0.0470
     16 O           0.4889    2.5342   -2.1501 O.3     1  LIG1       -0.3947
     17 H          -3.0837    0.1498    0.5777 H       1  LIG1        0.0271
     18 H          -1.5737    0.1903    1.5473 H       1  LIG1        0.0271
     19 H          -3.0356   -2.1132    0.3053 H       1  LIG1        0.0310
     20 H          -2.0501   -2.0469    1.8093 H       1  LIG1        0.0310
     21 H           0.5477   -2.0343   -1.4400 H       1  LIG1        0.0351
     22 H           0.7499    0.1380   -1.3883 H       1  LIG1        0.0352
     23 H          -1.6291   -0.3105   -1.4768 H       1  LIG1        0.0310
     24 H           1.1876   -2.3744    1.5245 H       1  LIG1        0.0274
     25 H           1.8448   -3.2336    0.0857 H       1  LIG1        0.0274
     26 H           3.1299   -1.1722   -0.5499 H       1  LIG1        0.0310
     27 H           3.5082   -1.7317    1.1229 H       1  LIG1        0.0310
     28 H           0.7124    1.4563    1.0896 H       1  LIG1        0.0575
     29 H           3.6158   -0.0096    2.7122 H       1  LIG1        0.0274
     30 H           2.3880    1.3015    2.7910 H       1  LIG1        0.0274
     31 H           3.7898    1.4470    1.6535 H       1  LIG1        0.0274
     32 H          -2.0450   -4.2694   -0.1739 H       1  LIG1        0.0534
     33 H          -0.3591   -4.2564   -0.9772 H       1  LIG1        0.0534
     34 H          -2.6611    1.7344   -1.2502 H       1  LIG1        0.0323
     35 H          -2.0073    3.7467   -0.2452 H       1  LIG1        0.0233
     36 H          -1.8703    2.5011    1.0406 H       1  LIG1        0.0233
     37 H          -0.3879    3.1520    0.2266 H       1  LIG1        0.0233
     38 H          -0.9884    1.4071   -3.1012 H       1  LIG1        0.0560
     39 H          -1.4228    3.1096   -2.7196 H       1  LIG1        0.0560
     40 H           0.9926    2.2690   -1.2862 H       1  LIG1        0.2094
@<TRIPOS>BOND
     1     1     2    1
     2     1     6    1
     3     1    17    1
     4     1    18    1
     5     2     3    1
     6     2    19    1
     7     2    20    1
     8     3     4    1
     9     3    12    2
    10     4     5    1
    11     4     7    1
    12     4    21    1
    13     5     6    1
    14     5    10    1
    15     5    22    1
    16     6    13    1
    17     6    23    1
    18     7     8    1
    19     7    24    1
    20     7    25    1
    21     8     9    1
    22     8    26    1
    23     8    27    1
    24     9    10    2
    25     9    11    1
    26    10    28    1
    27    11    29    1
    28    11    30    1
    29    11    31    1
    30    12    32    1
    31    12    33    1
    32    13    14    1
    33    13    15    1
    34    13    34    1
    35    14    35    1
    36    14    36    1
    37    14    37    1
    38    15    16    1
    39    15    38    1
    40    15    39    1
    41    16    40    1
