@<TRIPOS>MOLECULE
# University of Indonesia
# Herbal Database
# Metabolite Name:(+)-Quercitol
M00001170.mol2
 20 20 0 0 0
SMALL
GASTEIGER
Energy = 0

@<TRIPOS>ATOM
      1 C          -1.7380   -0.1978   -0.0032 C.2     1  LIG1        0.1705
      2 C          -0.9952   -1.3048   -0.6496 C.3     1  LIG1        0.0606
      3 C           0.4917   -1.4107   -0.4668 C.3     1  LIG1        0.0939
      4 C           1.2244   -0.1413   -0.0005 C.3     1  LIG1        0.1103
      5 C           0.4343    0.5061    1.1535 C.3     1  LIG1        0.1161
      6 C          -0.9945    0.9077    0.7234 C.3     1  LIG1        0.1415
      7 O          -0.9564    2.0795   -0.1200 O.3     1  LIG1       -0.3816
      8 O          -2.9603   -0.2811    0.0464 O.2     1  LIG1       -0.2942
      9 O           1.0874   -1.9239   -1.6734 O.3     1  LIG1       -0.3884
     10 O           1.3755    0.7948   -1.0900 O.3     1  LIG1       -0.3865
     11 O           1.1475    1.6501    1.6668 O.3     1  LIG1       -0.3861
     12 H          -1.5142   -1.9674   -1.3382 H       1  LIG1        0.0412
     13 H           0.6378   -2.1824    0.3247 H       1  LIG1        0.0627
     14 H           2.2410   -0.4228    0.3617 H       1  LIG1        0.0646
     15 H           0.3531   -0.2352    1.9834 H       1  LIG1        0.0650
     16 H          -1.5697    1.1705    1.6412 H       1  LIG1        0.0700
     17 H          -0.5379    2.0082   -1.0644 H       1  LIG1        0.2105
     18 H           0.6767   -2.7193   -2.1915 H       1  LIG1        0.2099
     19 H           2.0125    1.6017   -0.9759 H       1  LIG1        0.2100
     20 H           0.9316    2.5832    1.2729 H       1  LIG1        0.2100
@<TRIPOS>BOND
     1     1     6    1
     2     1     2    1
     3     1     8    2
     4     2     3    1
     5     2    12    1
     6     3     4    1
     7     3     9    1
     8     3    13    1
     9     4     5    1
    10     4    10    1
    11     4    14    1
    12     5     6    1
    13     5    11    1
    14     5    15    1
    15     6     7    1
    16     6    16    1
    17     7    17    1
    18     9    18    1
    19    10    19    1
    20    11    20    1
