@<TRIPOS>MOLECULE
# University of Indonesia
# Herbal Database
# Metabolite Name:(-)-Epicatechin 3-O-gallate
M00008866.mol2
 43 46 0 0 0
SMALL
GASTEIGER
Energy = 0

@<TRIPOS>ATOM
      1 C          -4.8997    1.9765    1.2496 C.ar    1  LIG1        0.1861
      2 C          -5.3502    0.7946    0.4654 C.ar    1  LIG1        0.0323
      3 C          -4.4508   -0.1116    0.0268 C.ar    1  LIG1        0.1896
      4 C          -2.9934    0.0688    0.3325 C.ar    1  LIG1        0.0485
      5 C          -2.5979    1.1391    1.0729 C.ar    1  LIG1        0.1324
      6 C          -3.5923    2.1421    1.5365 C.ar    1  LIG1        0.0273
      7 C          -1.9680   -0.8920   -0.1592 C.3     1  LIG1        0.0427
      8 C          -0.5151   -0.6363    0.1606 C.3     1  LIG1        0.1512
      9 C          -0.1669    0.8389    0.4825 C.3     1  LIG1        0.1562
     10 O          -1.2165    1.3503    1.3485 O.3     1  LIG1       -0.4806
     11 C          -0.0337    1.7706   -0.7725 C.2     1  LIG1       -0.0367
     12 C           1.1360    1.5440   -1.4725 C.2     1  LIG1       -0.0581
     13 C           2.4168    1.8127   -0.7340 C.2     1  LIG1       -0.0112
     14 C           2.4098    2.8317    0.1736 C.2     1  LIG1        0.2252
     15 C           1.1540    3.6764    0.2911 C.2     1  LIG1        0.2251
     16 C           0.0310    3.2334   -0.3366 C.2     1  LIG1       -0.0113
     17 O          -5.7226    2.8000    1.6323 O.3     1  LIG1       -0.2877
     18 O          -4.8330   -1.0805   -0.6213 O.3     1  LIG1       -0.2874
     19 O           0.3325   -1.1499   -0.8947 O.3     1  LIG1       -0.4531
     20 O           3.4202    3.0847    0.8228 O.2     1  LIG1       -0.2838
     21 O           1.1701    4.7824    0.8225 O.2     1  LIG1       -0.2838
     22 C           0.5808   -2.5334   -1.0811 C.2     1  LIG1        0.3398
     23 C           1.8471   -3.1474   -0.5906 C.ar    1  LIG1        0.0665
     24 O          -0.2170   -3.1912   -1.7393 O.2     1  LIG1       -0.2449
     25 C           2.1361   -4.4569   -0.8014 C.ar    1  LIG1        0.0032
     26 C           3.4068   -5.0550   -0.3064 C.ar    1  LIG1        0.2299
     27 C           4.3040   -4.2894    0.3713 C.ar    1  LIG1        0.2715
     28 C           3.9932   -2.8407    0.6102 C.ar    1  LIG1        0.2299
     29 C           2.8375   -2.3092    0.1558 C.ar    1  LIG1        0.0032
     30 O           3.6178   -6.2455   -0.5254 O.3     1  LIG1       -0.2837
     31 O           5.3586   -4.7706    0.7866 O.3     1  LIG1       -0.2797
     32 O           4.7819   -2.1237    1.2194 O.3     1  LIG1       -0.2837
     33 H          -6.4098    0.6685    0.2477 H       1  LIG1        0.0694
     34 H          -3.2552    3.0060    2.1069 H       1  LIG1        0.0693
     35 H          -2.2526   -1.6839   -0.8477 H       1  LIG1        0.0396
     36 H          -0.3163   -1.2184    1.0921 H       1  LIG1        0.0781
     37 H           0.7709    0.8351    1.0852 H       1  LIG1        0.0816
     38 H          -0.9376    1.5804   -1.3970 H       1  LIG1        0.0613
     39 H           1.1298    1.2116   -2.5094 H       1  LIG1        0.0617
     40 H           3.3200    1.2410   -0.9387 H       1  LIG1        0.0657
     41 H          -0.7937    3.9126   -0.5469 H       1  LIG1        0.0655
     42 H           1.4404   -5.0998   -1.3406 H       1  LIG1        0.0665
     43 H           2.6264   -1.2553    0.3366 H       1  LIG1        0.0665
@<TRIPOS>BOND
     1     1     2   ar
     2     1     6   ar
     3     1    17    1
     4     2     3   ar
     5     2    33    1
     6     3     4   ar
     7     3    18    1
     8     4     5   ar
     9     4     7    1
    10     5     6   ar
    11     5    10    1
    12     6    34    1
    13     7     8    1
    14     7    35    1
    15     8     9    1
    16     8    19    1
    17     8    36    1
    18     9    10    1
    19     9    11    1
    20     9    37    1
    21    11    12    2
    22    11    16    1
    23    11    38    1
    24    12    13    1
    25    12    39    1
    26    13    14    2
    27    13    40    1
    28    14    15    1
    29    14    20    1
    30    15    16    2
    31    15    21    1
    32    16    41    1
    33    19    22    1
    34    22    23    1
    35    22    24    2
    36    23    29   ar
    37    23    25   ar
    38    25    26   ar
    39    25    42    1
    40    26    27   ar
    41    26    30    1
    42    27    28   ar
    43    27    31    1
    44    28    29   ar
    45    28    32    1
    46    29    43    1
