@<TRIPOS>MOLECULE
@<TRIPOS>MOLECULE
# University of Indonesia
# Herbal Database
# Metabolite Name(-)-Pelletierine
M00002062.mol2
 11 11 0 0 0
SMALL
GASTEIGER
Energy = 0

@<TRIPOS>ATOM
      1 C          -2.9519    0.8006    1.0982 C.3     1  LIG1        0.0188
      2 C          -2.5904   -0.4347    1.6553 C.3     1  LIG1        0.0883
      3 N          -1.4648   -1.3055    1.5068 N.3     1  LIG1       -0.2243
      4 C          -0.4246   -0.7425    0.5111 C.3     1  LIG1        0.0478
      5 C          -0.8745    0.5830   -0.0507 C.3     1  LIG1        0.0126
      6 C          -2.0398    1.3286    0.1984 C.3     1  LIG1        0.0026
      7 H          -0.3100   -1.4696   -0.3254 H       1  LIG1        0.0493
      8 C           0.8513   -0.5708    1.2184 C.3     1  LIG1        0.0765
      9 C           2.0943   -0.5596    0.4906 C.2     1  LIG1        0.1521
     10 C           3.1306   -0.5110   -0.1137 C.3     1  LIG1        0.0723
     11 O           2.6628    0.5027    0.2680 O.2     1  LIG1       -0.2960
@<TRIPOS>BOND
     1     1     2    1
     2     1     6    1
     3     2     3    1
     4     3     4    1
     5     4     5    1
     6     4     7    1
     7     4     8    1
     8     5     6    1
     9     8     9    1
    10     9    10    1
    11     9    11    2
