@<TRIPOS>MOLECULE
# University of Indonesia
# Herbal Database
# Metabolite Name:(+)-8(1)-Hydroxypinoresinol
M00007191.mol2
 28 31 0 0 0
SMALL
GASTEIGER
Energy = 0

@<TRIPOS>ATOM
      1 C          -0.8807    0.2344   -0.6529 C.3     1  LIG1        0.0423
      2 C           0.6019    0.6268   -0.6002 C.3     1  LIG1        0.0577
      3 C          -0.9290   -1.3031   -0.4337 C.3     1  LIG1        0.1362
      4 C           0.9136   -0.7641   -0.4765 C.3     1  LIG1        0.1449
      5 O           0.3336   -1.9852   -0.3570 O.3     1  LIG1       -0.3520
      6 C           0.7975    1.4610    0.6923 C.3     1  LIG1        0.1395
      7 C          -1.0804    1.0512    0.5051 C.3     1  LIG1        0.1413
      8 O          -0.3985    1.7847    1.4242 O.3     1  LIG1       -0.3520
      9 C           0.2121    0.0557    0.3806 C.3     1  LIG1        0.0051
     10 C           2.4422    2.7071    2.3205 C.ar    1  LIG1        0.0015
     11 C           2.1293    1.9155    1.1418 C.ar    1  LIG1        0.0078
     12 C           3.2856    1.6822    0.5246 C.ar    1  LIG1        0.0383
     13 C           4.6919    2.0743    0.8180 C.ar    1  LIG1        0.1771
     14 C           4.8669    2.8256    1.9875 C.ar    1  LIG1        0.2293
     15 C           3.6080    3.1020    2.6881 C.ar    1  LIG1        0.0450
     16 C          -4.6553   -2.1775   -0.2759 C.ar    1  LIG1        0.0450
     17 C          -4.8966   -3.4621   -0.0990 C.ar    1  LIG1        0.2293
     18 C          -3.5409   -4.2534   -0.0114 C.ar    1  LIG1        0.1771
     19 C          -2.4247   -3.4894   -0.1159 C.ar    1  LIG1        0.0383
     20 C          -2.2056   -2.0364   -0.3141 C.ar    1  LIG1        0.0075
     21 C          -3.4140   -1.5286   -0.3727 C.ar    1  LIG1        0.0015
     22 H          -1.3925    0.6116   -1.5666 H       1  LIG1        0.0371
     23 O          -3.4613   -5.6340    0.2721 O.3     1  LIG1       -0.4682
     24 C          -3.0469   -4.5087    0.3162 C.3     1  LIG1        0.2526
     25 O          -6.0270   -3.9290   -0.0148 O.3     1  LIG1       -0.2833
     26 O           5.9593    3.2096    2.3922 O.3     1  LIG1       -0.2833
     27 O           5.7685    1.6383    0.0133 O.3     1  LIG1       -0.4682
     28 C           5.5289    0.5784   -0.4960 C.3     1  LIG1        0.2526
@<TRIPOS>BOND
     1     1     3    1
     2     1     2    1
     3     1     7    1
     4     1    22    1
     5     2     4    1
     6     2     6    1
     7     2     9    1
     8     3     5    1
     9     3    20    1
    10     4     5    1
    11     6     8    1
    12     6    11    1
    13     7     8    1
    14    10    11   ar
    15    10    15   ar
    16    11    12   ar
    17    12    13   ar
    18    13    14   ar
    19    13    27    1
    20    14    15   ar
    21    14    26    1
    22    16    17   ar
    23    16    21   ar
    24    17    18   ar
    25    17    25    1
    26    18    19   ar
    27    18    23    1
    28    19    20   ar
    29    20    21   ar
    30    23    24    1
    31    27    28    1
