@<TRIPOS>MOLECULE
# University of Indonesia
# Herbal Database
# Metabolite Name:(3S,5R,8S)-5,8-Epoxy-5,8-dihydro-beta,beta-caroten-3-ol
M00022949.mol2
 92 94 0 0 0
SMALL
GASTEIGER
Energy = 0

@<TRIPOS>ATOM
      1 C          -9.4270    0.4565    1.7599 C.3     1  LIG1       -0.0209
      2 C          -9.6937   -1.0685    1.6522 C.3     1  LIG1        0.0594
      3 C          -9.1299   -1.7291    0.3661 C.3     1  LIG1        0.0134
      4 C          -7.6705   -1.3188    0.0658 C.3     1  LIG1        0.1154
      5 C          -7.6189    0.2118    0.0593 C.3     1  LIG1        0.0190
      6 C          -7.9900    0.9472    1.3799 C.3     1  LIG1       -0.0231
      7 C          -6.9933    0.7427    2.5450 C.3     1  LIG1       -0.0591
      8 C          -6.6831   -2.1266    0.9510 C.3     1  LIG1       -0.0243
      9 C          -6.3354    0.4628   -0.7107 C.2     1  LIG1       -0.0751
     10 C          -6.3976   -0.5008   -1.7287 C.2     1  LIG1        0.0505
     11 C          -8.0426    2.4732    1.1079 C.3     1  LIG1       -0.0591
     12 C          -5.0816   -0.9965   -2.3204 C.2     1  LIG1       -0.0164
     13 C          -4.6135   -2.2424   -2.0451 C.2     1  LIG1       -0.0558
     14 C          -4.4226   -0.0836   -3.2945 C.3     1  LIG1       -0.0209
     15 C          -3.3538   -2.8425   -2.5524 C.2     1  LIG1       -0.0612
     16 C          -2.1050   -2.3292   -2.5547 C.2     1  LIG1       -0.0586
     17 C          -1.6371   -1.0574   -1.9223 C.2     1  LIG1       -0.0470
     18 C          -2.1541   -0.5756   -0.7584 C.2     1  LIG1       -0.0586
     19 C          -0.5502   -0.3621   -2.6628 C.3     1  LIG1       -0.0237
     20 C          -1.6619    0.6246   -0.0245 C.2     1  LIG1       -0.0615
     21 C          -0.3907    0.8424    0.3760 C.2     1  LIG1       -0.0615
     22 C           0.6910   -0.1729    0.2305 C.2     1  LIG1       -0.0586
     23 C           2.0222    0.0674    0.1454 C.2     1  LIG1       -0.0470
     24 C           2.5682    1.4676    0.1163 C.2     1  LIG1       -0.0586
     25 C           2.9138   -1.1145   -0.0027 C.3     1  LIG1       -0.0237
     26 C           3.8065    1.9050    0.4320 C.2     1  LIG1       -0.0612
     27 C           4.8807    1.0647    1.0233 C.2     1  LIG1       -0.0586
     28 C           6.2195    1.1526    0.7884 C.2     1  LIG1       -0.0470
     29 C           6.7706    2.1440   -0.2122 C.2     1  LIG1       -0.0583
     30 C           7.0716    0.1974    1.5481 C.3     1  LIG1       -0.0237
     31 C           8.0255    2.3837   -0.6595 C.2     1  LIG1       -0.0578
     32 C           9.2922    1.7042   -0.2698 C.2     1  LIG1       -0.0419
     33 C           9.9534    0.6855   -1.2331 C.3     1  LIG1       -0.0065
     34 C           9.9389    2.0054    0.9087 C.2     1  LIG1       -0.0616
     35 C           9.3264    2.8033    1.9991 C.3     1  LIG1       -0.0272
     36 C          11.3792    1.6261    1.0783 C.3     1  LIG1       -0.0091
     37 C          12.1692    1.2935   -0.1352 C.3     1  LIG1       -0.0264
     38 C          11.3997    1.1204   -1.3888 C.3     1  LIG1       -0.0243
     39 C           9.9250   -0.7348   -0.6115 C.3     1  LIG1       -0.0555
     40 C           9.2703    0.5862   -2.6151 C.3     1  LIG1       -0.0555
     41 O          -9.2138   -1.7391    2.8310 O.3     1  LIG1       -0.3916
     42 O          -7.2696   -1.5995   -1.2976 O.2     1  LIG1       -0.4961
     43 H          -9.6892    0.8015    2.7873 H       1  LIG1        0.0295
     44 H         -10.1611    0.9395    1.0713 H       1  LIG1        0.0295
     45 H         -10.7992   -1.2173    1.6385 H       1  LIG1        0.0595
     46 H          -9.7699   -1.4213   -0.4936 H       1  LIG1        0.0329
     47 H          -9.2128   -2.8378    0.4459 H       1  LIG1        0.0329
     48 H          -8.4200    0.5499   -0.6538 H       1  LIG1        0.0382
     49 H          -5.9470    0.9148    2.2068 H       1  LIG1        0.0235
     50 H          -7.2064    1.4551    3.3755 H       1  LIG1        0.0235
     51 H          -7.0607   -0.2678    2.9892 H       1  LIG1        0.0235
     52 H          -6.9848   -2.1939    2.0122 H       1  LIG1        0.0268
     53 H          -5.6509   -1.7180    0.9097 H       1  LIG1        0.0268
     54 H          -6.6427   -3.1755    0.5782 H       1  LIG1        0.0268
     55 H          -6.2896    1.4971   -1.1265 H       1  LIG1        0.0530
     56 H          -5.4428    0.3067   -0.0629 H       1  LIG1        0.0530
     57 H          -6.9471   -0.0475   -2.5913 H       1  LIG1        0.0988
     58 H          -8.4231    3.0220    2.0004 H       1  LIG1        0.0235
     59 H          -8.7170    2.7131    0.2536 H       1  LIG1        0.0235
     60 H          -7.0286    2.8670    0.8655 H       1  LIG1        0.0235
     61 H          -5.2019   -2.9076   -1.4202 H       1  LIG1        0.0621
     62 H          -3.5584   -0.3929   -3.8753 H       1  LIG1        0.0317
     63 H          -4.8090    0.9208   -3.4531 H       1  LIG1        0.0317
     64 H          -3.4750   -3.8394   -2.9731 H       1  LIG1        0.0618
     65 H          -1.3400   -2.9098   -3.0693 H       1  LIG1        0.0620
     66 H          -2.9911   -1.0869   -0.2913 H       1  LIG1        0.0620
     67 H          -0.1112   -0.8123   -3.5505 H       1  LIG1        0.0316
     68 H          -0.1792    0.6119   -2.3559 H       1  LIG1        0.0316
     69 H          -2.4099    1.3778    0.2154 H       1  LIG1        0.0618
     70 H          -0.1551    1.7967    0.8433 H       1  LIG1        0.0618
     71 H           0.3502   -1.2076    0.1779 H       1  LIG1        0.0620
     72 H           1.8780    2.2345   -0.2307 H       1  LIG1        0.0620
     73 H           2.5320   -2.1245    0.1354 H       1  LIG1        0.0316
     74 H           3.9573   -1.0067   -0.2815 H       1  LIG1        0.0316
     75 H           4.0232    2.9578    0.2634 H       1  LIG1        0.0618
     76 H           4.5199    0.3034    1.7158 H       1  LIG1        0.0620
     77 H           6.0285    2.7797   -0.6853 H       1  LIG1        0.0620
     78 H           6.6297   -0.5021    2.2560 H       1  LIG1        0.0316
     79 H           8.1421    0.1506    1.4393 H       1  LIG1        0.0316
     80 H           8.1486    3.1532   -1.4203 H       1  LIG1        0.0621
     81 H           9.9032    3.0510    2.8874 H       1  LIG1        0.0313
     82 H           8.2997    3.1549    1.9410 H       1  LIG1        0.0313
     83 H          11.8652    1.6697    2.0500 H       1  LIG1        0.0354
     84 H          13.2539    1.2278   -0.1135 H       1  LIG1        0.0313
     85 H          11.8560    1.3165   -2.3576 H       1  LIG1        0.0315
     86 H          10.3601   -0.7688    0.4118 H       1  LIG1        0.0238
     87 H           8.8761   -1.1040   -0.5423 H       1  LIG1        0.0238
     88 H          10.4976   -1.4505   -1.2460 H       1  LIG1        0.0238
     89 H           9.2849    1.5760   -3.1265 H       1  LIG1        0.0238
     90 H           9.7986   -0.1467   -3.2684 H       1  LIG1        0.0238
     91 H           8.2095    0.2607   -2.5111 H       1  LIG1        0.0238
     92 H          -9.3596   -1.3290    3.7689 H       1  LIG1        0.2098
@<TRIPOS>BOND
     1     1     2    1
     2     1     6    1
     3     1    43    1
     4     1    44    1
     5     2     3    1
     6     2    41    1
     7     2    45    1
     8     3     4    1
     9     3    46    1
    10     3    47    1
    11     4     5    1
    12     4     8    1
    13     4    42    1
    14     5     6    1
    15     5     9    1
    16     5    48    1
    17     6     7    1
    18     6    11    1
    19     7    49    1
    20     7    50    1
    21     7    51    1
    22     8    52    1
    23     8    53    1
    24     8    54    1
    25     9    10    2
    26     9    55    1
    27     9    56    1
    28    10    12    1
    29    10    42    1
    30    10    57    1
    31    11    58    1
    32    11    59    1
    33    11    60    1
    34    12    13    2
    35    12    14    1
    36    13    15    1
    37    13    61    1
    38    14    62    1
    39    14    63    1
    40    15    16    2
    41    15    64    1
    42    16    17    1
    43    16    65    1
    44    17    18    2
    45    17    19    1
    46    18    20    1
    47    18    66    1
    48    19    67    1
    49    19    68    1
    50    20    21    2
    51    20    69    1
    52    21    22    1
    53    21    70    1
    54    22    23    2
    55    22    71    1
    56    23    24    1
    57    23    25    1
    58    24    26    2
    59    24    72    1
    60    25    73    1
    61    25    74    1
    62    26    27    1
    63    26    75    1
    64    27    28    2
    65    27    76    1
    66    28    29    1
    67    28    30    1
    68    29    31    2
    69    29    77    1
    70    30    78    1
    71    30    79    1
    72    31    32    1
    73    31    80    1
    74    32    33    1
    75    32    34    2
    76    33    38    1
    77    33    39    1
    78    33    40    1
    79    34    35    1
    80    34    36    1
    81    35    81    1
    82    35    82    1
    83    36    37    1
    84    36    83    1
    85    37    38    1
    86    37    84    1
    87    38    85    1
    88    39    86    1
    89    39    87    1
    90    39    88    1
    91    40    89    1
    92    40    90    1
    93    40    91    1
    94    41    92    1
