@<TRIPOS>MOLECULE
# University of Indonesia
# Herbal Database
# Metabolite Name: (3R)-3-Hydroxyretinal
M00021284.mol2
 46 46 0 0 0
SMALL
GASTEIGER
Energy = 0

@<TRIPOS>ATOM
      1 C          -4.3701   -0.4613   -0.4779 C.3     1  LIG1       -0.0171
      2 C          -4.0758   -1.3713    0.7159 C.3     1  LIG1        0.0631
      3 C          -2.7000   -1.9482    0.6030 C.3     1  LIG1        0.0156
      4 C          -1.6441   -1.3072   -0.2275 C.2     1  LIG1       -0.0594
      5 C          -1.8492   -0.0760   -0.8070 C.2     1  LIG1       -0.0420
      6 C          -3.2540    0.5930   -0.7428 C.3     1  LIG1       -0.0075
      7 O          -5.0388   -2.4390    0.7553 O.3     1  LIG1       -0.3912
      8 C          -3.2451    1.6520    0.3820 C.3     1  LIG1       -0.0557
      9 C          -3.6447    1.3156   -2.0577 C.3     1  LIG1       -0.0557
     10 C          -0.4021   -2.1099   -0.3962 C.3     1  LIG1       -0.0271
     11 C          -0.7757    0.6066   -1.6157 C.2     1  LIG1       -0.0578
     12 C           0.5084    0.8688   -1.2743 C.2     1  LIG1       -0.0583
     13 C           1.1616    0.6199    0.0510 C.2     1  LIG1       -0.0470
     14 C           2.4572    0.2096    0.0291 C.2     1  LIG1       -0.0586
     15 C           0.3959    0.8500    1.3044 C.3     1  LIG1       -0.0237
     16 C           3.2972   -0.1071    1.2231 C.2     1  LIG1       -0.0612
     17 C           4.6210   -0.3760    1.2175 C.2     1  LIG1       -0.0585
     18 C           5.5468   -0.3080    0.0437 C.2     1  LIG1       -0.0440
     19 C           6.4594   -1.3117   -0.0685 C.2     1  LIG1       -0.0193
     20 C           5.4460    0.8488   -0.8877 C.3     1  LIG1       -0.0236
     21 C           7.5266   -1.4903   -1.0906 C.2     1  LIG1        0.1434
     22 O           7.7457   -0.6704   -1.9732 O.2     1  LIG1       -0.2963
     23 H          -5.3535    0.0370   -0.3075 H       1  LIG1        0.0299
     24 H          -4.4780   -1.1115   -1.3792 H       1  LIG1        0.0299
     25 H          -4.1468   -0.7979    1.6677 H       1  LIG1        0.0599
     26 H          -2.5229   -2.9345    1.0249 H       1  LIG1        0.0377
     27 H          -5.0639   -3.1348   -0.0093 H       1  LIG1        0.2098
     28 H          -2.9754    1.1993    1.3621 H       1  LIG1        0.0238
     29 H          -2.5030    2.4533    0.1596 H       1  LIG1        0.0238
     30 H          -4.2467    2.1292    0.4875 H       1  LIG1        0.0238
     31 H          -3.5706    0.6173   -2.9229 H       1  LIG1        0.0238
     32 H          -4.6906    1.6989   -2.0093 H       1  LIG1        0.0238
     33 H          -2.9846    2.1913   -2.2540 H       1  LIG1        0.0238
     34 H           0.3795   -1.8229   -1.0928 H       1  LIG1        0.0313
     35 H          -0.2580   -3.0289    0.1674 H       1  LIG1        0.0313
     36 H          -1.0667    0.9177   -2.6158 H       1  LIG1        0.0621
     37 H           1.1438    1.2994   -2.0489 H       1  LIG1        0.0620
     38 H           2.9283    0.0723   -0.9423 H       1  LIG1        0.0620
     39 H          -0.5908    1.2914    1.2572 H       1  LIG1        0.0316
     40 H           0.7809    0.6136    2.2893 H       1  LIG1        0.0316
     41 H           2.8110   -0.1653    2.1912 H       1  LIG1        0.0618
     42 H           5.0660   -0.6859    2.1636 H       1  LIG1        0.0620
     43 H           6.4364   -2.1104    0.6730 H       1  LIG1        0.0652
     44 H           6.0001    0.9171   -1.8162 H       1  LIG1        0.0316
     45 H           4.7899    1.6807   -0.6421 H       1  LIG1        0.0316
     46 H           8.1229   -2.3967   -1.0113 H       1  LIG1        0.1075
@<TRIPOS>BOND
     1     1     2    1
     2     1     6    1
     3     1    23    1
     4     1    24    1
     5     2     3    1
     6     2     7    1
     7     2    25    1
     8     3     4    1
     9     3    26    1
    10     4     5    2
    11     4    10    1
    12     5     6    1
    13     5    11    1
    14     6     8    1
    15     6     9    1
    16     7    27    1
    17     8    28    1
    18     8    29    1
    19     8    30    1
    20     9    31    1
    21     9    32    1
    22     9    33    1
    23    10    34    1
    24    10    35    1
    25    11    12    2
    26    11    36    1
    27    12    13    1
    28    12    37    1
    29    13    14    2
    30    13    15    1
    31    14    16    1
    32    14    38    1
    33    15    39    1
    34    15    40    1
    35    16    17    2
    36    16    41    1
    37    17    18    1
    38    17    42    1
    39    18    19    2
    40    18    20    1
    41    19    21    1
    42    19    43    1
    43    20    44    1
    44    20    45    1
    45    21    22    2
    46    21    46    1
