@<TRIPOS>MOLECULE
# University of Indonesia
# Herbal Database
# Metabolite Name:(S)-8-Gingerol
M00031475.mol2
 53 53 0 0 0
SMALL
GASTEIGER
Energy = 0

@<TRIPOS>ATOM
      1 O           1.5220   -1.8261    2.3687 O.3     1  LIG1       -0.3914
      2 O          -0.0553    1.9081    0.8887 O.2     1  LIG1       -0.2973
      3 O          -2.0363    6.4707    0.6713 O.3     1  LIG1       -0.4915
      4 O          -4.8247    6.5541    0.3933 O.3     1  LIG1       -0.5033
      5 C           1.4235   -1.6637   -0.8301 C.3     1  LIG1       -0.0507
      6 C           2.0188   -0.7258    0.2396 C.3     1  LIG1       -0.0265
      7 C           1.2796   -3.1470   -0.4541 C.3     1  LIG1       -0.0530
      8 C           1.2944   -0.6310    1.5988 C.3     1  LIG1        0.0619
      9 C           2.6149   -3.8673   -0.2209 C.3     1  LIG1       -0.0531
     10 C          -0.2146   -0.3639    1.5145 C.3     1  LIG1        0.0319
     11 C           2.4075   -5.3533    0.0996 C.3     1  LIG1       -0.0533
     12 C          -0.7120    0.8753    0.8145 C.2     1  LIG1        0.1361
     13 C           3.7365   -6.0877    0.3125 C.3     1  LIG1       -0.0559
     14 C          -1.8579    0.7545   -0.1688 C.3     1  LIG1        0.0099
     15 C          -1.9362    1.8475   -1.2502 C.3     1  LIG1       -0.0209
     16 C           3.5282   -7.5636    0.6435 C.3     1  LIG1       -0.0653
     17 C          -2.6689    3.0757   -0.7638 C.ar    1  LIG1       -0.0433
     18 C          -2.0055    4.1666   -0.3253 C.ar    1  LIG1       -0.0131
     19 C          -4.1459    3.1511   -0.9360 C.ar    1  LIG1       -0.0549
     20 C          -2.7418    5.4011    0.0518 C.ar    1  LIG1        0.1615
     21 C          -4.8153    4.2639   -0.5944 C.ar    1  LIG1       -0.0163
     22 C          -4.0857    5.4414   -0.0704 C.ar    1  LIG1        0.1585
     23 C          -1.5819    7.3959   -0.3469 C.3     1  LIG1        0.0790
     24 H           2.0634   -1.5953   -1.7406 H       1  LIG1        0.0266
     25 H           0.4193   -1.2808   -1.1205 H       1  LIG1        0.0266
     26 H           3.0799   -1.0110    0.4240 H       1  LIG1        0.0290
     27 H           2.0409    0.2980   -0.2018 H       1  LIG1        0.0290
     28 H           0.7531   -3.6536   -1.2966 H       1  LIG1        0.0265
     29 H           0.6319   -3.2502    0.4453 H       1  LIG1        0.0265
     30 H           1.7551    0.2153    2.1617 H       1  LIG1        0.0597
     31 H           3.2446   -3.7729   -1.1364 H       1  LIG1        0.0265
     32 H           3.1534   -3.3906    0.6297 H       1  LIG1        0.0265
     33 H          -0.6910   -1.2670    1.0717 H       1  LIG1        0.0367
     34 H          -0.6002   -0.2952    2.5573 H       1  LIG1        0.0367
     35 H           1.7892   -5.4421    1.0241 H       1  LIG1        0.0265
     36 H           1.8564   -5.8366   -0.7414 H       1  LIG1        0.0265
     37 H           4.3549   -6.0142   -0.6124 H       1  LIG1        0.0263
     38 H           4.2971   -5.6109    1.1501 H       1  LIG1        0.0263
     39 H          -1.7712   -0.2237   -0.6949 H       1  LIG1        0.0345
     40 H          -2.8089    0.7309    0.4120 H       1  LIG1        0.0345
     41 H          -0.9145    2.1055   -1.6162 H       1  LIG1        0.0317
     42 H          -2.4883    1.4350   -2.1267 H       1  LIG1        0.0317
     43 H           2.4721   -2.2274    2.4456 H       1  LIG1        0.2098
     44 H           4.5160   -8.0581    0.7845 H       1  LIG1        0.0230
     45 H           2.9388   -7.6705    1.5827 H       1  LIG1        0.0230
     46 H           2.9888   -8.0750   -0.1862 H       1  LIG1        0.0230
     47 H          -0.9212    4.1572   -0.2343 H       1  LIG1        0.0658
     48 H          -4.6928    2.2942   -1.3268 H       1  LIG1        0.0621
     49 H          -5.8971    4.3071   -0.7039 H       1  LIG1        0.0655
     50 H          -4.2226    6.9722    1.1242 H       1  LIG1        0.2923
     51 H          -1.0410    8.2318    0.1500 H       1  LIG1        0.0660
     52 H          -0.8771    6.8975   -1.0529 H       1  LIG1        0.0660
     53 H          -2.4423    7.8269   -0.9114 H       1  LIG1        0.0660
@<TRIPOS>BOND
     1     1     8    1
     2     1    43    1
     3     2    12    2
     4     3    20    1
     5     3    23    1
     6     4    22    1
     7     4    50    1
     8     5     6    1
     9     5     7    1
    10     5    24    1
    11     5    25    1
    12     6     8    1
    13     6    26    1
    14     6    27    1
    15     7     9    1
    16     7    28    1
    17     7    29    1
    18     8    10    1
    19     8    30    1
    20     9    11    1
    21     9    31    1
    22     9    32    1
    23    10    12    1
    24    10    33    1
    25    10    34    1
    26    11    13    1
    27    11    35    1
    28    11    36    1
    29    12    14    1
    30    13    16    1
    31    13    37    1
    32    13    38    1
    33    14    15    1
    34    14    39    1
    35    14    40    1
    36    15    17    1
    37    15    41    1
    38    15    42    1
    39    16    44    1
    40    16    45    1
    41    16    46    1
    42    17    18   ar
    43    17    19   ar
    44    18    20   ar
    45    18    47    1
    46    19    21   ar
    47    19    48    1
    48    20    22   ar
    49    21    22   ar
    50    21    49    1
    51    23    51    1
    52    23    52    1
    53    23    53    1
