@<TRIPOS>MOLECULE
# University of Indonesia
# Herbal Database
# Metabolite Name:(-)-2,3-Dihydro-9-O-beta-glucosyloxy-2-isopropenyl-7H-furo[3,2-g][1]benzopyran-7-one
M00019835.mol2
 48 51 0 0 0
SMALL
GASTEIGER
Energy = 0

@<TRIPOS>ATOM
      1 C           0.2921   -1.2672    0.5607 C.ar    1  LIG1        0.1702
      2 C           0.3815   -2.5629    0.3249 C.ar    1  LIG1        0.0064
      3 C           1.6815   -3.2334    0.1286 C.ar    1  LIG1       -0.0438
      4 C           2.8061   -2.4923    0.1995 C.ar    1  LIG1        0.0218
      5 C           2.7283   -1.0148    0.4635 C.ar    1  LIG1        0.1842
      6 C           1.5140   -0.4236    0.5950 C.ar    1  LIG1        0.2083
      7 C           4.1359   -3.1083    0.0289 C.ar    1  LIG1       -0.0442
      8 C           5.2371   -2.3574    0.1288 C.ar    1  LIG1        0.0236
      9 C           5.1461   -0.9035    0.4046 C.ar    1  LIG1        0.3373
     10 O           3.9058   -0.2088    0.5709 O.2     1  LIG1       -0.4183
     11 O          -1.0284   -0.7851    0.7596 O.3     1  LIG1       -0.4804
     12 C          -0.9467   -3.1042    0.3401 C.3     1  LIG1        0.0387
     13 C          -1.8900   -1.9471    0.5334 C.3     1  LIG1        0.1220
     14 O           6.1882   -0.2659    0.4886 O.2     1  LIG1       -0.2452
     15 O           1.3972    0.9624    0.9105 O.3     1  LIG1       -0.4534
     16 C          -2.8217   -1.6730   -0.6783 C.2     1  LIG1       -0.0772
     17 C          -3.6092   -2.7725   -1.0457 C.2     1  LIG1       -0.1274
     18 C          -3.7143   -0.4460   -0.3958 C.3     1  LIG1       -0.0474
     19 C           1.5487    1.8061   -0.2707 C.3     1  LIG1        0.2317
     20 C           0.2340    1.9622   -1.0664 C.3     1  LIG1        0.1546
     21 C          -0.7474    2.9662   -0.5270 C.3     1  LIG1        0.2006
     22 C          -0.2097    4.0792    0.3362 C.3     1  LIG1        0.1216
     23 C           1.1158    3.7980    1.0528 C.3     1  LIG1        0.1232
     24 O           2.0396    3.1105    0.1533 O.3     1  LIG1       -0.3307
     25 C           1.7897    5.0092    1.6384 C.3     1  LIG1        0.1538
     26 O           2.5724    5.6945    0.9883 O.3     1  LIG1       -0.2255
     27 O          -1.1876    4.4885    1.3198 O.3     1  LIG1       -0.3860
     28 O          -1.9548    2.7485   -0.5871 O.3     1  LIG1       -0.2185
     29 O           0.5421    2.3389   -2.4282 O.3     1  LIG1       -0.3824
     30 H           1.7201   -4.3049   -0.0606 H       1  LIG1        0.0629
     31 H           4.2291   -4.1744   -0.1766 H       1  LIG1        0.0627
     32 H           6.2168   -2.8149    0.0055 H       1  LIG1        0.0689
     33 H          -1.2019   -4.1601    0.3253 H       1  LIG1        0.0396
     34 H          -2.4995   -2.1346    1.4492 H       1  LIG1        0.0781
     35 H          -2.1691   -1.4040   -1.5441 H       1  LIG1        0.0554
     36 H          -4.2640   -2.5181   -1.9130 H       1  LIG1        0.0459
     37 H          -4.2536   -3.1027   -0.1968 H       1  LIG1        0.0459
     38 H          -2.9711   -3.6292   -1.3633 H       1  LIG1        0.0459
     39 H          -4.4119   -0.6456    0.4506 H       1  LIG1        0.0270
     40 H          -4.3118   -0.1746   -1.2969 H       1  LIG1        0.0270
     41 H          -3.0921    0.4371   -0.1310 H       1  LIG1        0.0270
     42 H           2.3241    1.3886   -0.9594 H       1  LIG1        0.1084
     43 H          -0.2746    0.9728   -1.1026 H       1  LIG1        0.0688
     44 H          -0.0444    4.9337   -0.3592 H       1  LIG1        0.0652
     45 H           0.8965    3.1375    1.9247 H       1  LIG1        0.0652
     46 H           1.6581    5.1815    2.7021 H       1  LIG1        0.0683
     47 H          -2.1935    4.3693    1.1042 H       1  LIG1        0.2100
     48 H           0.6419    1.6293   -3.1743 H       1  LIG1        0.2102
@<TRIPOS>BOND
     1     1     2   ar
     2     1     6   ar
     3     1    11    1
     4     2     3   ar
     5     2    12    1
     6     3     4   ar
     7     3    30    1
     8     4     5   ar
     9     4     7   ar
    10     5     6   ar
    11     5    10   ar
    12     6    15    1
    13     7     8   ar
    14     7    31    1
    15     8     9   ar
    16     8    32    1
    17     9    10   ar
    18     9    14    2
    19    11    13    1
    20    12    13    1
    21    12    33    1
    22    13    16    1
    23    13    34    1
    24    15    19    1
    25    16    17    2
    26    16    18    1
    27    16    35    1
    28    17    36    1
    29    17    37    1
    30    17    38    1
    31    18    39    1
    32    18    40    1
    33    18    41    1
    34    19    20    1
    35    19    24    1
    36    19    42    1
    37    20    21    1
    38    20    29    1
    39    20    43    1
    40    21    22    1
    41    21    28    1
    42    22    23    1
    43    22    27    1
    44    22    44    1
    45    23    24    1
    46    23    25    1
    47    23    45    1
    48    25    26    1
    49    25    46    1
    50    27    47    1
    51    29    48    1
