@<TRIPOS>MOLECULE
# University of Indonesia
# Herbal Database
# Metabolite Name:(-)-Annonaine
M00001807.mol2
 21 25 0 0 0
SMALL
GASTEIGER
Energy = 0

@<TRIPOS>ATOM
      1 C          -1.6811    2.2772    0.2753 C.ar    1  LIG1        0.1761
      2 C          -1.7546    0.8248   -0.1129 C.ar    1  LIG1        0.1760
      3 C          -0.6294    0.0409   -0.1386 C.ar    1  LIG1        0.0336
      4 C           0.7440    0.7114    0.2324 C.ar    1  LIG1       -0.0121
      5 C           0.7818    2.0457    0.6584 C.ar    1  LIG1       -0.0205
      6 C          -0.4880    2.6878    0.5857 C.ar    1  LIG1        0.0357
      7 C           2.1303   -0.0701    0.1869 C.3     1  LIG1        0.0634
      8 N           2.9557    0.0447    1.4407 N.3     1  LIG1       -0.2199
      9 C           2.9291    1.4356    1.6499 C.3     1  LIG1        0.0933
     10 C           2.0008    2.4235    1.3195 C.3     1  LIG1        0.0450
     11 C          -0.6414   -1.4276   -0.5078 C.ar    1  LIG1       -0.0012
     12 C           0.5789   -2.1768   -0.5207 C.ar    1  LIG1       -0.0207
     13 C           1.7315   -1.4156   -0.1753 C.3     1  LIG1        0.0425
     14 C          -1.8208   -2.2677   -0.8858 C.ar    1  LIG1       -0.0002
     15 C          -1.9092   -3.5125   -1.2095 C.ar    1  LIG1       -0.0000
     16 C          -0.6672   -4.1579   -1.1936 C.ar    1  LIG1       -0.0003
     17 C           0.4445   -3.6030   -0.8961 C.ar    1  LIG1       -0.0042
     18 O          -2.9107    2.9817    0.2605 O.3     1  LIG1       -0.4346
     19 O          -3.0919    0.4470   -0.4237 O.3     1  LIG1       -0.4346
     20 C          -3.3699    1.7546   -0.1311 C.3     1  LIG1        0.4294
     21 H           2.7138    0.3932   -0.6476 H       1  LIG1        0.0536
@<TRIPOS>BOND
     1     1     2   ar
     2     1     6   ar
     3     1    18    1
     4     2     3   ar
     5     2    19    1
     6     3     4   ar
     7     3    11    1
     8     4     5   ar
     9     4     7    1
    10     5     6   ar
    11     5    10    1
    12     7     8    1
    13     7    13    1
    14     7    21    1
    15     8     9    1
    16     9    10    1
    17    11    12   ar
    18    11    14   ar
    19    12    13    1
    20    12    17   ar
    21    14    15   ar
    22    15    16   ar
    23    16    17   ar
    24    18    20    1
    25    19    20    1
