@<TRIPOS>MOLECULE
# University of Indonesia
# Herbal Database
# Metabolite Name:(+)-Prezizaene
M00021772.mol2
 16 18 0 0 0
SMALL
GASTEIGER
Energy = 0

@<TRIPOS>ATOM
      1 C          -0.2987    0.8251    0.3630 C.3     1  LIG1       -0.0159
      2 C          -0.8407   -0.7011    0.4011 C.3     1  LIG1       -0.0028
      3 C          -0.2711   -1.2576   -0.8289 C.3     1  LIG1        0.0037
      4 C           1.0981   -1.2737   -0.9877 C.3     1  LIG1        0.0183
      5 C           1.4998    0.0220   -1.4432 C.2     1  LIG1       -0.0454
      6 C           0.6913    1.2153   -0.8181 C.3     1  LIG1        0.0118
      7 C          -1.6629    1.2873    0.2941 C.3     1  LIG1       -0.0036
      8 C          -2.3538   -0.9698    0.5679 C.3     1  LIG1       -0.0003
      9 C          -2.7048    0.4026    0.4328 C.3     1  LIG1       -0.0003
     10 C           0.6992    2.2051   -1.4918 C.3     1  LIG1        0.0037
     11 H           0.1518    1.1214    1.3409 H       1  LIG1        0.0321
     12 C          -3.4805   -1.2689    0.8199 C.3     1  LIG1       -0.0000
     13 C           0.1565   -1.5374    1.0504 C.3     1  LIG1        0.0001
     14 C           1.2445   -1.8781    0.2518 C.3     1  LIG1        0.0040
     15 C           1.3353    2.1168   -0.3623 C.3     1  LIG1        0.0037
     16 C           2.4067   -0.3501   -2.1297 C.2     1  LIG1       -0.0092
@<TRIPOS>BOND
     1     1     2    1
     2     1     6    1
     3     1     7    1
     4     1    11    1
     5     2     3    1
     6     2     8    1
     7     2    13    1
     8     3     4    1
     9     4     5    1
    10     4    14    1
    11     5     6    1
    12     5    16    2
    13     6    10    1
    14     6    15    1
    15     7     9    1
    16     8     9    1
    17     8    12    1
    18    13    14    1
