@<TRIPOS>MOLECULE
# University of Indonesia
# Herbal Database
# Metabolite Name:(+)-beta-Rotunol
M00012842.mol2
 35 36 0 0 0
SMALL
GASTEIGER
Energy = 0

@<TRIPOS>ATOM
      1 C          -3.3461    0.7183   -1.7453 C.2     1  LIG1        0.1605
      2 C          -3.4767   -0.5986   -1.1180 C.2     1  LIG1       -0.0168
      3 C          -2.5211   -1.1017   -0.3157 C.2     1  LIG1       -0.0307
      4 C          -1.2840   -0.2809    0.1097 C.3     1  LIG1        0.1357
      5 C          -1.2285    1.2526   -0.3125 C.3     1  LIG1        0.0180
      6 C          -2.3003    1.6450   -1.3122 C.3     1  LIG1        0.0406
      7 C          -0.1662   -0.9902   -0.6467 C.3     1  LIG1        0.0082
      8 C           1.2857   -0.5915   -0.5339 C.3     1  LIG1       -0.0174
      9 C           1.3254    0.8901   -0.8474 C.3     1  LIG1       -0.0273
     10 C           0.1156    1.7502   -0.8469 C.3     1  LIG1       -0.0245
     11 C          -1.5163    2.1428    0.9195 C.3     1  LIG1       -0.0556
     12 C          -2.6450   -2.5267    0.1136 C.3     1  LIG1       -0.0247
     13 C           1.9838   -0.8974    0.8302 C.2     1  LIG1       -0.1109
     14 C           3.4998   -0.5906    0.7720 C.3     1  LIG1       -0.0505
     15 C           1.7911   -2.2203    1.2587 C.2     1  LIG1       -0.1304
     16 O          -4.1463    1.0646   -2.6062 O.2     1  LIG1       -0.2923
     17 O          -1.1076   -0.5542    1.4840 O.3     1  LIG1       -0.2219
     18 H          -4.3493   -1.1965   -1.3787 H       1  LIG1        0.0653
     19 H          -2.3529    2.6710   -1.6756 H       1  LIG1        0.0394
     20 H          -0.3858   -1.7797   -1.3692 H       1  LIG1        0.0343
     21 H           1.8086   -1.1684   -1.3332 H       1  LIG1        0.0346
     22 H           2.2821    1.3830   -0.9954 H       1  LIG1        0.0312
     23 H           0.2304    2.7888   -1.1533 H       1  LIG1        0.0313
     24 H          -1.5409    3.2280    0.6592 H       1  LIG1        0.0236
     25 H          -2.4999    1.8753    1.3725 H       1  LIG1        0.0236
     26 H          -0.7297    2.0016    1.6972 H       1  LIG1        0.0236
     27 H          -1.8830   -2.9770    0.7460 H       1  LIG1        0.0314
     28 H          -3.4932   -3.1387   -0.1890 H       1  LIG1        0.0314
     29 H           1.5470   -0.2197    1.6035 H       1  LIG1        0.0522
     30 H           3.9950   -0.8309    1.7414 H       1  LIG1        0.0269
     31 H           3.6851    0.4885    0.5787 H       1  LIG1        0.0269
     32 H           3.9934   -1.1837   -0.0327 H       1  LIG1        0.0269
     33 H           0.7108   -2.4394    1.4145 H       1  LIG1        0.0458
     34 H           2.2941   -2.4000    2.2387 H       1  LIG1        0.0458
     35 H           2.1935   -2.9449    0.5126 H       1  LIG1        0.0458
@<TRIPOS>BOND
     1     1     2    1
     2     1     6    1
     3     1    16    2
     4     2     3    2
     5     2    18    1
     6     3     4    1
     7     3    12    1
     8     4     5    1
     9     4     7    1
    10     4    17    1
    11     5     6    1
    12     5    10    1
    13     5    11    1
    14     6    19    1
    15     7     8    1
    16     7    20    1
    17     8     9    1
    18     8    13    1
    19     8    21    1
    20     9    10    1
    21     9    22    1
    22    10    23    1
    23    11    24    1
    24    11    25    1
    25    11    26    1
    26    12    27    1
    27    12    28    1
    28    13    14    1
    29    13    15    2
    30    13    29    1
    31    14    30    1
    32    14    31    1
    33    14    32    1
    34    15    33    1
    35    15    34    1
    36    15    35    1
