@<TRIPOS>MOLECULE
# University of Indonesia
# Herbal Database
# Metabolite Name:(-)-beta-Curcumene
M00011630.mol2
 32 32 0 0 0
SMALL
GASTEIGER
Energy = 0

@<TRIPOS>ATOM
      1 C          -3.9430   -0.0537    0.7106 C.ar    1  LIG1       -0.0583
      2 C          -3.7584   -1.5271    0.7326 C.ar    1  LIG1       -0.0470
      3 C          -2.5226   -2.0418    0.5872 C.ar    1  LIG1       -0.0583
      4 C          -1.3555   -1.1454    0.4036 C.ar    1  LIG1       -0.0580
      5 C          -1.5155    0.1977    0.3764 C.ar    1  LIG1       -0.0442
      6 C          -2.8862    0.7591    0.5438 C.ar    1  LIG1       -0.0580
      7 C          -4.9274   -2.4087    0.9133 C.3     1  LIG1       -0.0237
      8 C          -0.3371    1.1365    0.1853 C.3     1  LIG1       -0.0150
      9 C           0.2201    0.9574   -1.2352 C.3     1  LIG1       -0.0581
     10 C           0.5638    1.0145    1.4012 C.3     1  LIG1       -0.0237
     11 C           2.0058    0.6651    1.4566 C.3     1  LIG1       -0.0125
     12 C           2.7704   -0.0938    0.4365 C.2     1  LIG1       -0.0808
     13 C           4.1181   -0.1236    0.3053 C.2     1  LIG1       -0.0726
     14 C           4.7264   -0.9710   -0.7467 C.3     1  LIG1       -0.0280
     15 C           5.0468    0.6624    1.1562 C.3     1  LIG1       -0.0280
     16 H          -4.9377    0.3730    0.8299 H       1  LIG1        0.0620
     17 H          -2.3638   -3.1192    0.6020 H       1  LIG1        0.0620
     18 H          -0.3662   -1.5873    0.2964 H       1  LIG1        0.0620
     19 H          -3.0392    1.8369    0.5297 H       1  LIG1        0.0620
     20 H          -4.8129   -3.4908    0.9321 H       1  LIG1        0.0316
     21 H          -5.9223   -1.9848    1.0300 H       1  LIG1        0.0316
     22 H          -0.6956    2.1921    0.2153 H       1  LIG1        0.0349
     23 H           0.4316   -0.1057   -1.4820 H       1  LIG1        0.0236
     24 H          -0.5233    1.3308   -1.9767 H       1  LIG1        0.0236
     25 H           1.1532    1.5533   -1.3537 H       1  LIG1        0.0236
     26 H           0.1020    1.2336    2.3635 H       1  LIG1        0.0315
     27 H           2.5203    0.9793    2.3603 H       1  LIG1        0.0352
     28 H           2.1815   -0.6940   -0.2481 H       1  LIG1        0.0575
     29 H           5.8064   -1.0053   -0.8751 H       1  LIG1        0.0313
     30 H           4.1083   -1.5736   -1.4098 H       1  LIG1        0.0313
     31 H           4.6955    1.3473    1.9217 H       1  LIG1        0.0313
     32 H           6.1221    0.5711    1.0166 H       1  LIG1        0.0313
@<TRIPOS>BOND
     1     1     2   ar
     2     1     6   ar
     3     1    16    1
     4     2     3   ar
     5     2     7    1
     6     3     4   ar
     7     3    17    1
     8     4     5   ar
     9     4    18    1
    10     5     6   ar
    11     5     8    1
    12     6    19    1
    13     7    20    1
    14     7    21    1
    15     8     9    1
    16     8    10    1
    17     8    22    1
    18     9    23    1
    19     9    24    1
    20     9    25    1
    21    10    11    1
    22    10    26    1
    23    11    12    1
    24    11    27    1
    25    12    13    2
    26    12    28    1
    27    13    14    1
    28    13    15    1
    29    14    29    1
    30    14    30    1
    31    15    31    1
    32    15    32    1
