@<TRIPOS>MOLECULE
# University of Indonesia
# Herbal Database
# Metabolite Name:(-)-Camphene
M00003029.mol2
 26 27 0 0 0
SMALL
GASTEIGER
Energy = 0

@<TRIPOS>ATOM
      1 C           0.9682   -0.6257    1.0156 C.3     1  LIG1       -0.0316
      2 C          -0.5585   -0.6791    0.6630 C.3     1  LIG1       -0.0110
      3 C           0.6738    1.2782   -0.0466 C.3     1  LIG1       -0.0193
      4 C           1.2070    0.8584    1.3126 C.3     1  LIG1       -0.0429
      5 C           1.8977   -0.7656   -0.2142 C.3     1  LIG1       -0.0489
      6 C           1.6474    0.5456   -0.9791 C.3     1  LIG1       -0.0462
      7 C          -0.6910    0.6484   -0.0445 C.2     1  LIG1       -0.0676
      8 C          -1.4316   -0.7528    1.9384 C.3     1  LIG1       -0.0558
      9 C          -0.9523   -1.8541   -0.2606 C.3     1  LIG1       -0.0558
     10 C          -1.8140    1.2253   -0.4957 C.2     1  LIG1       -0.0987
     11 H           1.2626   -1.3067    1.8475 H       1  LIG1        0.0309
     12 H           0.6665    2.3833   -0.1918 H       1  LIG1        0.0346
     13 H           2.2781    1.1301    1.4869 H       1  LIG1        0.0274
     14 H           0.6078    1.2635    2.1607 H       1  LIG1        0.0274
     15 H           2.9618   -0.8205    0.1184 H       1  LIG1        0.0268
     16 H           1.6912   -1.6692   -0.8284 H       1  LIG1        0.0268
     17 H           1.1899    0.3655   -1.9796 H       1  LIG1        0.0271
     18 H           2.5948    1.1215   -1.1011 H       1  LIG1        0.0271
     19 H          -1.2158   -1.6939    2.4941 H       1  LIG1        0.0238
     20 H          -2.5145   -0.7434    1.6771 H       1  LIG1        0.0238
     21 H          -1.2502    0.1026    2.6249 H       1  LIG1        0.0238
     22 H          -0.5205   -1.7408   -1.2802 H       1  LIG1        0.0238
     23 H          -2.0582   -1.9061   -0.3858 H       1  LIG1        0.0238
     24 H          -0.6008   -2.8175    0.1740 H       1  LIG1        0.0238
     25 H          -1.7815    2.2127   -0.9506 H       1  LIG1        0.0535
     26 H          -2.7688    0.7115   -0.4139 H       1  LIG1        0.0535
@<TRIPOS>BOND
     1     1     2    1
     2     1     4    1
     3     1     5    1
     4     1    11    1
     5     2     7    1
     6     2     8    1
     7     2     9    1
     8     3     4    1
     9     3     6    1
    10     3     7    1
    11     3    12    1
    12     4    13    1
    13     4    14    1
    14     5     6    1
    15     5    15    1
    16     5    16    1
    17     6    17    1
    18     6    18    1
    19     7    10    2
    20     8    19    1
    21     8    20    1
    22     8    21    1
    23     9    22    1
    24     9    23    1
    25     9    24    1
    26    10    25    1
    27    10    26    1
