@<TRIPOS>MOLECULE
# University of Indonesia
# Herbal Database
# Metabolite Name:(-)-Bidwillon A
M00018981
 58 60 0 0 0
SMALL
GASTEIGER
Energy = 0

@<TRIPOS>ATOM
      1 C          -1.8576    0.7767   -1.1224 C.ar    1  LIG1        0.1273
      2 C          -2.1220   -0.4576   -0.6291 C.ar    1  LIG1       -0.0011
      3 C          -1.0400   -1.1870    0.0971 C.ar    1  LIG1       -0.0408
      4 C           0.1899   -0.6520    0.2145 C.ar    1  LIG1        0.0605
      5 C           0.4919    0.6619   -0.4098 C.ar    1  LIG1        0.1379
      6 C          -0.4882    1.3697   -1.0155 C.ar    1  LIG1        0.0403
      7 C           1.2921   -1.3177    0.9624 C.2     1  LIG1        0.1774
      8 C           2.5434   -0.5169    1.3329 C.3     1  LIG1        0.0846
      9 C           2.3407    0.9845    1.0239 C.3     1  LIG1        0.1036
     10 O           1.8172    1.1871   -0.3163 O.3     1  LIG1       -0.4898
     11 C           3.7998   -1.1686    0.7200 C.ar    1  LIG1        0.0081
     12 C           4.1048   -2.4352    1.1040 C.ar    1  LIG1       -0.0509
     13 C           5.2857   -3.1529    0.5746 C.ar    1  LIG1       -0.0197
     14 C           6.0867   -2.5573   -0.3167 C.ar    1  LIG1        0.1203
     15 C           5.8151   -1.1647   -0.7252 C.ar    1  LIG1        0.0216
     16 C           4.7404   -0.5037   -0.2583 C.ar    1  LIG1        0.1243
     17 O           4.5710    0.8274   -0.6930 O.3     1  LIG1       -0.5064
     18 O           7.2512   -3.2094   -0.7775 O.3     1  LIG1       -0.5066
     19 C          -0.1968    2.7422   -1.5928 C.3     1  LIG1       -0.0023
     20 C           0.2933    3.7287   -0.5522 C.2     1  LIG1       -0.0807
     21 C          -0.3953    4.1387    0.5436 C.2     1  LIG1       -0.0793
     22 C           0.2228    5.1857    1.4413 C.3     1  LIG1       -0.0440
     23 C          -1.8326    3.7370    0.7860 C.3     1  LIG1       -0.0440
     24 O           1.1721   -2.5009    1.2721 O.2     1  LIG1       -0.2912
     25 O          -2.8522    1.4615   -1.8616 O.3     1  LIG1       -0.5061
     26 C          -3.5076   -1.0530   -0.8203 C.3     1  LIG1       -0.0058
     27 C          -3.6971   -2.4548   -0.2738 C.2     1  LIG1       -0.0809
     28 C          -4.5850   -2.8377    0.6795 C.2     1  LIG1       -0.0793
     29 C          -4.6564   -4.2970    1.0680 C.3     1  LIG1       -0.0440
     30 C          -5.6134   -1.8896    1.2535 C.3     1  LIG1       -0.0440
     31 H          -1.2470   -2.1510    0.5576 H       1  LIG1        0.0630
     32 H           2.6590   -0.5518    2.4416 H       1  LIG1        0.0464
     33 H           1.6265    1.4190    1.7665 H       1  LIG1        0.0707
     34 H           3.2824    1.5583    1.1686 H       1  LIG1        0.0707
     35 H           3.5006   -2.9575    1.8431 H       1  LIG1        0.0623
     36 H           5.4991   -4.1653    0.9126 H       1  LIG1        0.0654
     37 H           6.4974   -0.6745   -1.4172 H       1  LIG1        0.0691
     38 H           3.7308    0.8012   -1.2971 H       1  LIG1        0.2921
     39 H           7.6006   -3.7401    0.0380 H       1  LIG1        0.2921
     40 H          -1.0982    3.1774   -2.0779 H       1  LIG1        0.0358
     41 H           0.5892    2.6274   -2.3746 H       1  LIG1        0.0358
     42 H           1.2968    4.1225   -0.7160 H       1  LIG1        0.0575
     43 H          -0.5519    5.8471    1.8902 H       1  LIG1        0.0274
     44 H           0.9367    5.8374    0.8867 H       1  LIG1        0.0274
     45 H           0.7720    4.6736    2.2629 H       1  LIG1        0.0274
     46 H          -2.3562    4.4653    1.4450 H       1  LIG1        0.0274
     47 H          -1.8518    2.7411    1.2826 H       1  LIG1        0.0274
     48 H          -2.4067    3.6841   -0.1647 H       1  LIG1        0.0274
     49 H          -3.3795    1.9968   -1.1518 H       1  LIG1        0.2922
     50 H          -3.7213   -1.1111   -1.9124 H       1  LIG1        0.0357
     51 H          -4.2267   -0.3446   -0.3541 H       1  LIG1        0.0357
     52 H          -3.0388   -3.2111   -0.7027 H       1  LIG1        0.0575
     53 H          -4.3271   -4.9631    0.2376 H       1  LIG1        0.0274
     54 H          -3.9951   -4.4684    1.9467 H       1  LIG1        0.0274
     55 H          -5.6946   -4.5934    1.3399 H       1  LIG1        0.0274
     56 H          -6.1413   -1.3415    0.4408 H       1  LIG1        0.0274
     57 H          -5.1067   -1.1608    1.9254 H       1  LIG1        0.0274
     58 H          -6.3859   -2.4284    1.8472 H       1  LIG1        0.0274
@<TRIPOS>BOND
     1     1     2   ar
     2     1     6   ar
     3     1    25    1
     4     2     3   ar
     5     2    26    1
     6     3     4   ar
     7     3    31    1
     8     4     5   ar
     9     4     7    1
    10     5     6   ar
    11     5    10    1
    12     6    19    1
    13     7     8    1
    14     7    24    2
    15     8     9    1
    16     8    11    1
    17     8    32    1
    18     9    10    1
    19     9    33    1
    20     9    34    1
    21    11    12   ar
    22    11    16   ar
    23    12    13   ar
    24    12    35    1
    25    13    14   ar
    26    13    36    1
    27    14    15   ar
    28    14    18    1
    29    15    16   ar
    30    15    37    1
    31    16    17    1
    32    17    38    1
    33    18    39    1
    34    19    20    1
    35    19    40    1
    36    19    41    1
    37    20    21    2
    38    20    42    1
    39    21    22    1
    40    21    23    1
    41    22    43    1
    42    22    44    1
    43    22    45    1
    44    23    46    1
    45    23    47    1
    46    23    48    1
    47    25    49    1
    48    26    27    1
    49    26    50    1
    50    26    51    1
    51    27    28    2
    52    27    52    1
    53    28    29    1
    54    28    30    1
    55    29    53    1
    56    29    54    1
    57    29    55    1
    58    30    56    1
    59    30    57    1
    60    30    58    1
