@<TRIPOS>MOLECULE
# University of Indonesia
# Herbal Database
# Metabolite Name:(-)-beta-Sitosterol
M00003672.mol2
 36 39 0 0 0
SMALL
GASTEIGER
Energy = 0

@<TRIPOS>ATOM
      1 C          -5.5380   -1.3687    0.4334 C.3     1  LIG1        0.0270
      2 C          -5.9069   -2.6807   -0.1072 C.3     1  LIG1        0.1123
      3 C          -4.6721   -3.3674    0.4100 C.3     1  LIG1        0.0480
      4 C          -3.3361   -3.0265    0.9537 C.2     1  LIG1       -0.0473
      5 C          -3.1064   -1.4886    1.3276 C.3     1  LIG1        0.0114
      6 C          -4.3975   -0.8481    1.0469 C.3     1  LIG1        0.0056
      7 C          -2.1951   -3.6803    0.9084 C.2     1  LIG1       -0.0349
      8 C          -0.9376   -3.0813    0.6788 C.3     1  LIG1        0.0209
      9 C          -0.5943   -1.6457    0.6056 C.3     1  LIG1       -0.0215
     10 C          -2.0445   -1.0364    0.2843 C.3     1  LIG1       -0.0192
     11 C           0.6879   -1.0057   -0.1135 C.3     1  LIG1       -0.0224
     12 C           0.6664    0.6215   -0.3068 C.3     1  LIG1       -0.0039
     13 C          -0.6706    1.0563   -0.0163 C.3     1  LIG1       -0.0006
     14 C          -1.8160    0.3698    0.2122 C.3     1  LIG1       -0.0039
     15 C           0.9321   -1.2138   -1.5293 C.3     1  LIG1       -0.0042
     16 C           0.9147    1.0725   -1.7571 C.3     1  LIG1       -0.0039
     17 C           1.1174   -0.1688   -2.4048 C.3     1  LIG1       -0.0006
     18 C           0.9021    2.5016   -2.2590 C.3     1  LIG1       -0.0191
     19 C           1.8968    3.0586   -1.3568 C.3     1  LIG1       -0.0042
     20 C           2.9702    3.0849   -0.4398 C.3     1  LIG1       -0.0042
     21 C           4.1451    2.6612    0.2732 C.3     1  LIG1       -0.0191
     22 C           4.7909    1.8137   -0.7686 C.3     1  LIG1       -0.0036
     23 C           5.3136    1.1318   -1.6085 C.3     1  LIG1       -0.0003
     24 C           4.5077    1.5653   -1.9112 C.3     1  LIG1       -0.0003
     25 O          -5.8062   -2.5998   -1.5092 O.3     1  LIG1       -0.2296
     26 H          -6.8130   -3.0221    0.4329 H       1  LIG1        0.0643
     27 C          -2.7225   -0.8590    2.2739 C.3     1  LIG1        0.0037
     28 H          -2.3409   -1.3756   -0.7452 H       1  LIG1        0.0318
     29 H          -0.4051   -1.3774    1.6718 H       1  LIG1        0.0316
     30 H           1.6076   -1.2844    0.4522 H       1  LIG1        0.0316
     31 C           0.4137    1.0032    0.8034 C.3     1  LIG1       -0.0003
     32 C           0.1728    2.9341   -3.0930 C.3     1  LIG1       -0.0042
     33 H          -0.0864    2.9661   -2.0749 H       1  LIG1        0.0318
     34 H           4.7806    3.5006    0.6101 H       1  LIG1        0.0318
     35 C           3.7721    1.8000    1.4005 C.3     1  LIG1       -0.0039
     36 C           4.0135    1.0556    2.3452 C.3     1  LIG1       -0.0003
@<TRIPOS>BOND
     1     1     2    1
     2     1     6    1
     3     2     3    1
     4     2    25    1
     5     2    26    1
     6     3     4    1
     7     4     5    1
     8     4     7    2
     9     5     6    1
    10     5    10    1
    11     5    27    1
    12     7     8    1
    13     8     9    1
    14     9    10    1
    15     9    11    1
    16     9    29    1
    17    10    14    1
    18    10    28    1
    19    11    12    1
    20    11    15    1
    21    11    30    1
    22    12    13    1
    23    12    16    1
    24    12    31    1
    25    13    14    1
    26    15    17    1
    27    16    17    1
    28    16    18    1
    29    18    19    1
    30    18    32    1
    31    18    33    1
    32    19    20    1
    33    20    21    1
    34    21    22    1
    35    21    34    1
    36    21    35    1
    37    22    23    1
    38    22    24    1
    39    35    36    1
