@<TRIPOS>MOLECULE
# University of Indonesia
# Herbal Database
# Metabolite Name:(+)-7-Hydroxycostal
M00012723.mol2
 18 19 0 0 0
SMALL
GASTEIGER
Energy = 0

@<TRIPOS>ATOM
      1 C          -2.8799    0.7212   -0.7936 C.3     1  LIG1        0.0217
      2 C          -3.0328   -0.5603   -1.2675 C.3     1  LIG1        0.0043
      3 C          -2.3932   -1.5897   -0.6203 C.3     1  LIG1        0.0003
      4 C          -1.5338   -1.6126    0.5635 C.3     1  LIG1       -0.0000
      5 C          -1.2142   -0.0061    0.9399 C.3     1  LIG1       -0.0011
      6 C          -2.0312    1.1649    0.2832 C.2     1  LIG1       -0.0484
      7 C          -0.2489   -2.2259    0.2161 C.3     1  LIG1        0.0029
      8 C           1.0148   -1.6447    0.0724 C.3     1  LIG1        0.0348
      9 C           1.5384   -0.2864    0.1858 C.3     1  LIG1        0.1483
     10 C           0.2424    0.2884    0.6541 C.3     1  LIG1        0.0346
     11 C          -2.6834    2.0819   -0.1350 C.2     1  LIG1       -0.0095
     12 H          -1.3957    0.0703    2.0351 H       1  LIG1        0.0359
     13 C          -2.0922   -2.6671    0.4356 C.3     1  LIG1        0.0000
     14 C           1.9974    0.1953   -1.1547 C.2     1  LIG1        0.0472
     15 C           1.5436    0.3220   -2.2591 C.2     1  LIG1        0.0012
     16 C           3.3511    0.6050   -1.4138 C.2     1  LIG1        0.2323
     17 O           4.5202    0.9161   -1.6495 O.2     1  LIG1       -0.2834
     18 O           2.5207   -0.2125    1.1920 O.3     1  LIG1       -0.2211
@<TRIPOS>BOND
     1     1     2    1
     2     1     6    1
     3     2     3    1
     4     3     4    1
     5     4     5    1
     6     4     7    1
     7     4    13    1
     8     5     6    1
     9     5    10    1
    10     5    12    1
    11     6    11    2
    12     7     8    1
    13     8     9    1
    14     9    10    1
    15     9    14    1
    16     9    18    1
    17    14    15    2
    18    14    16    1
    19    16    17    2
