@<TRIPOS>MOLECULE
# University of Indonesia
# Herbal Database
# Metabolite Name:(+)-Khusitene
M00020187.mol2
 16 17 0 0 0
SMALL
GASTEIGER
Energy = 0

@<TRIPOS>ATOM
      1 C          -2.4214    0.7017    0.2869 C.3     1  LIG1        0.0043
      2 C          -2.6531   -0.6488    0.4287 C.3     1  LIG1        0.0217
      3 C          -1.8035   -1.7677    0.2456 C.2     1  LIG1       -0.0485
      4 C          -0.4193   -1.2422   -0.1785 C.3     1  LIG1       -0.0034
      5 C          -0.0810    0.3976   -0.3595 C.3     1  LIG1       -0.0011
      6 C          -1.2413    1.3840   -0.0947 C.3     1  LIG1        0.0004
      7 C           0.5591   -1.7502    0.8108 C.3     1  LIG1        0.0041
      8 C           1.5859   -1.0849    1.5103 C.3     1  LIG1        0.0217
      9 C           1.9461    0.3102    1.4245 C.2     1  LIG1       -0.0485
     10 C           1.0740    0.7566    0.5395 C.2     1  LIG1       -0.0392
     11 C           2.4813    1.3721    1.5858 C.3     1  LIG1        0.0260
     12 C          -2.6550   -2.5638    0.5309 C.2     1  LIG1       -0.0095
     13 C          -1.1653    2.8177   -0.2241 C.3     1  LIG1        0.0000
     14 C          -1.0267    2.9079    0.9645 C.3     1  LIG1        0.0000
     15 H          -0.2001   -1.7234   -1.1584 H       1  LIG1        0.0358
     16 H           0.2424    0.5565   -1.4135 H       1  LIG1        0.0361
@<TRIPOS>BOND
     1     1     2    1
     2     1     6    1
     3     2     3    1
     4     3     4    1
     5     3    12    2
     6     4     5    1
     7     4     7    1
     8     4    15    1
     9     5     6    1
    10     5    10    1
    11     5    16    1
    12     6    13    1
    13     7     8    1
    14     8     9    1
    15     9    10    2
    16     9    11    1
    17    13    14    1
