@<TRIPOS>MOLECULE
# University of Indonesia
# Herbal Database
# Metabolite Name:(12S,13S)-EOD
M00000363.mol2
 39 39 0 0 0
SMALL
GASTEIGER
Energy = 0

@<TRIPOS>ATOM
      1 C          -7.3988    0.4331    0.9091 C.3     1  LIG1       -0.0457
      2 C          -6.1020    0.3785    0.2168 C.3     1  LIG1       -0.0166
      3 C          -5.5824   -0.9010   -0.3207 C.2     1  LIG1       -0.0839
      4 C          -4.4261   -1.0773   -0.9873 C.2     1  LIG1       -0.0800
      5 C          -3.4356   -0.0110   -1.2798 C.3     1  LIG1        0.0306
      6 C          -2.2532   -0.2625   -2.1694 C.3     1  LIG1        0.1527
      7 C          -0.4636   -0.3513   -0.3089 C.2     1  LIG1       -0.0307
      8 C          -0.6433    0.8601    0.5240 C.2     1  LIG1       -0.0628
      9 C          -0.2162    1.0125    1.7931 C.2     1  LIG1       -0.0800
     10 C           0.6070    0.0478    2.5671 C.3     1  LIG1       -0.0127
     11 O          -1.6425   -1.5465   -1.8850 O.2     1  LIG1       -0.4919
     12 C          -0.8723   -0.3550   -1.6046 C.2     1  LIG1        0.0753
     13 C           1.6925   -0.8331    2.0685 C.3     1  LIG1       -0.0272
     14 C           2.5637   -0.6124    0.8898 C.3     1  LIG1       -0.0306
     15 C           2.7029    0.6718    0.1670 C.3     1  LIG1       -0.0309
     16 C           3.6092    0.8926   -0.9819 C.3     1  LIG1       -0.0304
     17 C           4.8422    0.1407   -1.3068 C.3     1  LIG1       -0.0199
     18 C           5.6348   -0.6496   -0.3368 C.3     1  LIG1        0.0773
     19 C           6.8224   -1.4364   -0.7190 C.2     1  LIG1        0.3601
     20 O           7.1862   -1.4586   -1.8896 O.co2   1  LIG1       -0.2460
     21 O           7.4154   -2.0495    0.1605 O.co2   1  LIG1       -0.2460
     22 H          -7.7724    1.3818    1.2866 H       1  LIG1        0.0271
     23 H          -7.9944   -0.4661    1.0484 H       1  LIG1        0.0271
     24 H          -5.5470    1.3061    0.1069 H       1  LIG1        0.0349
     25 H          -6.2056   -1.7816   -0.1682 H       1  LIG1        0.0572
     26 H          -4.1956   -2.0796   -1.3467 H       1  LIG1        0.0573
     27 H          -3.5166    0.9712   -0.8248 H       1  LIG1        0.0390
     28 H          -2.3711   -0.1504   -3.2703 H       1  LIG1        0.0814
     29 H          -0.2060   -1.2900    0.1707 H       1  LIG1        0.0645
     30 H          -1.1825    1.6950    0.0777 H       1  LIG1        0.0615
     31 H          -0.5044    1.9198    2.3203 H       1  LIG1        0.0575
     32 H           0.3995   -0.0105    3.6334 H       1  LIG1        0.0352
     33 H          -0.0414   -0.2621   -2.3398 H       1  LIG1        0.0986
     34 H           1.8910   -1.7330    2.6475 H       1  LIG1        0.0312
     35 H           3.1476   -1.4652    0.5503 H       1  LIG1        0.0309
     36 H           2.0909    1.5158    0.4677 H       1  LIG1        0.0309
     37 H           3.3463    1.7002   -1.6610 H       1  LIG1        0.0309
     38 H           5.2176    0.2073   -2.3263 H       1  LIG1        0.0315
     39 H           5.3600   -0.6488    0.7124 H       1  LIG1        0.0426
@<TRIPOS>BOND
     1     1     2    1
     2     1    22    1
     3     1    23    1
     4     2     3    1
     5     2    24    1
     6     3     4    2
     7     3    25    1
     8     4     5    1
     9     4    26    1
    10     5     6    1
    11     5    27    1
    12     6    12    1
    13     6    11    1
    14     6    28    1
    15     7    12    2
    16     7     8    1
    17     7    29    1
    18     8     9    2
    19     8    30    1
    20     9    10    1
    21     9    31    1
    22    10    13    1
    23    10    32    1
    24    11    12    1
    25    12    33    1
    26    13    14    1
    27    13    34    1
    28    14    15    1
    29    14    35    1
    30    15    16    1
    31    15    36    1
    32    16    17    1
    33    16    37    1
    34    17    18    1
    35    17    38    1
    36    18    19    1
    37    18    39    1
    38    19    20   ar
    39    19    21   ar
