@<TRIPOS>MOLECULE
# University of Indonesia
# Herbal Database
# Metabolite Name:(+)-Cyclosativene
M00021859.mol2
 39 42 0 0 0
SMALL
GASTEIGER
Energy = 0

@<TRIPOS>ATOM
      1 C           2.1067   -0.6191    0.3851 C.3     1  LIG1       -0.0199
      2 C           0.9170   -1.3334   -0.2449 C.3     1  LIG1       -0.0281
      3 C           2.2718   -1.3556   -0.9329 C.3     1  LIG1       -0.0310
      4 C           1.8655    0.8733    0.1261 C.3     1  LIG1       -0.0230
      5 C           1.2975    0.6392   -1.2971 C.3     1  LIG1       -0.0315
      6 C           0.1071   -0.3081   -1.0440 C.3     1  LIG1       -0.0310
      7 C           2.2889   -0.2888   -2.0039 C.3     1  LIG1       -0.0458
      8 C          -1.0329    0.3921   -0.2524 C.3     1  LIG1       -0.0353
      9 C           0.8202    1.5574    1.0586 C.3     1  LIG1       -0.0466
     10 C           2.5098   -1.2128    1.7344 C.3     1  LIG1       -0.0585
     11 C          -0.5379    0.8413    1.1396 C.3     1  LIG1       -0.0492
     12 C           3.1760    1.6908    0.1765 C.3     1  LIG1       -0.0588
     13 C          -2.3821   -0.3872   -0.1837 C.3     1  LIG1       -0.0436
     14 C          -3.1594   -0.3241   -1.5100 C.3     1  LIG1       -0.0624
     15 C          -2.2646   -1.8467    0.2840 C.3     1  LIG1       -0.0624
     16 H           0.6438   -2.4073   -0.1398 H       1  LIG1        0.0312
     17 H           3.0345   -2.1601   -0.8220 H       1  LIG1        0.0309
     18 H           1.0477    1.5629   -1.8681 H       1  LIG1        0.0309
     19 H          -0.2847   -0.7399   -1.9951 H       1  LIG1        0.0309
     20 H           3.2957    0.1565   -2.1606 H       1  LIG1        0.0271
     21 H           1.9044   -0.6776   -2.9757 H       1  LIG1        0.0271
     22 H          -1.2516    1.3417   -0.7981 H       1  LIG1        0.0306
     23 H           1.2288    1.6395    2.0928 H       1  LIG1        0.0271
     24 H           0.6399    2.5931    0.6846 H       1  LIG1        0.0271
     25 H           1.7588   -0.9455    2.5105 H       1  LIG1        0.0235
     26 H           2.5950   -2.3223    1.6815 H       1  LIG1        0.0235
     27 H           3.4969   -0.7950    2.0327 H       1  LIG1        0.0235
     28 H          -0.4363   -0.0395    1.8124 H       1  LIG1        0.0268
     29 H          -1.2817    1.5296    1.6045 H       1  LIG1        0.0268
     30 H           3.4843    1.8617    1.2334 H       1  LIG1        0.0235
     31 H           4.0233    1.1732   -0.3240 H       1  LIG1        0.0235
     32 H           3.0263    2.6804   -0.3125 H       1  LIG1        0.0235
     33 H          -3.0280    0.1335    0.5633 H       1  LIG1        0.0298
     34 H          -4.1599   -0.8009   -1.3932 H       1  LIG1        0.0232
     35 H          -2.6116   -0.8512   -2.3234 H       1  LIG1        0.0232
     36 H          -3.3218    0.7350   -1.8153 H       1  LIG1        0.0232
     37 H          -1.6939   -1.9171    1.2359 H       1  LIG1        0.0232
     38 H          -1.7589   -2.4688   -0.4884 H       1  LIG1        0.0232
     39 H          -3.2785   -2.2726    0.4616 H       1  LIG1        0.0232
@<TRIPOS>BOND
     1     1     2    1
     2     1     3    1
     3     1     4    1
     4     1    10    1
     5     2     3    1
     6     2     6    1
     7     2    16    1
     8     3     7    1
     9     3    17    1
    10     4     5    1
    11     4     9    1
    12     4    12    1
    13     5     6    1
    14     5     7    1
    15     5    18    1
    16     6     8    1
    17     6    19    1
    18     7    20    1
    19     7    21    1
    20     8    11    1
    21     8    13    1
    22     8    22    1
    23     9    11    1
    24     9    23    1
    25     9    24    1
    26    10    25    1
    27    10    26    1
    28    10    27    1
    29    11    28    1
    30    11    29    1
    31    12    30    1
    32    12    31    1
    33    12    32    1
    34    13    14    1
    35    13    15    1
    36    13    33    1
    37    14    34    1
    38    14    35    1
    39    14    36    1
    40    15    37    1
    41    15    38    1
    42    15    39    1
