@<TRIPOS>MOLECULE
# University of Indonesia
# Herbal Database
# Metabolite Name:(-)-Alcanfor
M00000135.mol2
 27 28 0 0 0
SMALL
GASTEIGER
Energy = 0

@<TRIPOS>ATOM
      1 C          -2.0225    0.2861   -0.0230 C.2     1  LIG1        0.0206
      2 C          -2.0410   -1.2242    0.3250 C.3     1  LIG1       -0.0043
      3 C          -0.6083   -1.6762   -0.0472 C.3     1  LIG1       -0.0258
      4 C          -0.5344   -1.6069   -1.5528 C.3     1  LIG1       -0.0299
      5 C          -0.4879   -0.1749   -1.8629 C.3     1  LIG1       -0.0219
      6 C          -0.5491    0.4943   -0.4975 C.3     1  LIG1        0.0207
      7 O          -2.3471    1.0226    1.0115 O.2     1  LIG1       -0.5243
      8 C          -0.0669    1.9508   -0.5356 C.3     1  LIG1       -0.0529
      9 C           0.2937   -0.4910    0.3670 C.3     1  LIG1       -0.0199
     10 C           0.3363   -0.2170    1.9003 C.3     1  LIG1       -0.0587
     11 C           1.7936   -0.6514   -0.0462 C.3     1  LIG1       -0.0587
     12 H          -2.7447    0.5053   -0.8463 H       1  LIG1        0.0907
     13 H          -2.8124   -1.7694   -0.2685 H       1  LIG1        0.0336
     14 H          -2.2461   -1.4109    1.4044 H       1  LIG1        0.0336
     15 H          -0.3060   -2.6606    0.3777 H       1  LIG1        0.0313
     16 H          -0.4120   -2.4352   -2.2447 H       1  LIG1        0.0310
     17 H          -0.3226    0.2895   -2.8317 H       1  LIG1        0.0316
     18 H          -2.3061    2.0542    0.9555 H       1  LIG1        0.2902
     19 H          -0.0608    2.3854    0.4890 H       1  LIG1        0.0239
     20 H          -0.7455    2.5589   -1.1758 H       1  LIG1        0.0239
     21 H           0.9636    2.0115   -0.9529 H       1  LIG1        0.0239
     22 H           0.9152    0.7113    2.1102 H       1  LIG1        0.0235
     23 H          -0.6587   -0.0909    2.3723 H       1  LIG1        0.0235
     24 H           0.8329   -1.0652    2.4251 H       1  LIG1        0.0235
     25 H           2.3725    0.2611    0.2246 H       1  LIG1        0.0235
     26 H           1.9412   -0.8170   -1.1362 H       1  LIG1        0.0235
     27 H           2.2446   -1.5227    0.4820 H       1  LIG1        0.0235
@<TRIPOS>BOND
     1     1     2    1
     2     1     6    1
     3     1     7    2
     4     1    12    1
     5     2     3    1
     6     2    13    1
     7     2    14    1
     8     3     4    1
     9     3     9    1
    10     3    15    1
    11     4     5    1
    12     4    16    1
    13     5     6    1
    14     5    17    1
    15     6     8    1
    16     6     9    1
    17     7    18    1
    18     8    19    1
    19     8    20    1
    20     8    21    1
    21     9    10    1
    22     9    11    1
    23    10    22    1
    24    10    23    1
    25    10    24    1
    26    11    25    1
    27    11    26    1
    28    11    27    1
