@<TRIPOS>MOLECULE
# University of Indonesia
# Herbal Database
# Metabolite Name:(3beta)-28-Norlup-20(29)-ene-3,17-diol 3-acetate
M00021223.mol2
 38 42 0 0 0
SMALL
GASTEIGER
Energy = 0

@<TRIPOS>ATOM
      1 C          -4.3977   -0.6406    0.2630 C.3     1  LIG1        0.0436
      2 C          -4.6523   -1.9957   -0.1071 C.3     1  LIG1        0.1683
      3 C          -3.3495   -2.5920   -0.6608 C.3     1  LIG1        0.0336
      4 C          -2.1503   -1.6664   -1.1335 C.3     1  LIG1       -0.0161
      5 C          -1.9030   -0.2232   -0.4117 C.3     1  LIG1       -0.0065
      6 C          -3.2264    0.0737    0.1093 C.3     1  LIG1        0.0031
      7 C          -0.8866   -2.3157   -0.8981 C.3     1  LIG1       -0.0038
      8 C           0.2478   -1.9839   -0.1931 C.3     1  LIG1       -0.0006
      9 C           0.6402   -0.8545    0.6144 C.3     1  LIG1       -0.0037
     10 C          -0.7819   -0.0464    0.7213 C.3     1  LIG1       -0.0193
     11 C           1.8436   -0.0722   -0.0591 C.3     1  LIG1       -0.0038
     12 C           2.2305    1.3832    0.4963 C.3     1  LIG1       -0.0200
     13 C           0.9026    1.9478    0.6241 C.3     1  LIG1       -0.0044
     14 C          -0.3364    1.3399    0.7449 C.3     1  LIG1       -0.0043
     15 C           3.1502   -0.6691   -0.2467 C.3     1  LIG1        0.0022
     16 C           4.3795   -0.0542   -0.4119 C.3     1  LIG1        0.0301
     17 C           4.7847    1.3445   -0.4184 C.3     1  LIG1        0.1232
     18 C           3.3687    2.1728   -0.2888 C.3     1  LIG1        0.0070
     19 C           5.0476    1.7912   -1.7616 C.3     1  LIG1        0.0304
     20 C           3.0160    2.8224   -1.6593 C.3     1  LIG1        0.0167
     21 C           4.1527    2.5565   -2.4448 C.3     1  LIG1        0.0063
     22 C           1.7527    3.4065   -2.1160 C.2     1  LIG1       -0.0445
     23 C           0.6203    3.7418   -1.9039 C.3     1  LIG1        0.0263
     24 C           1.5816    3.8078   -3.2340 C.2     1  LIG1       -0.0091
     25 C          -3.3000   -2.8700    0.5056 C.3     1  LIG1        0.0033
     26 C          -3.0927   -3.4563   -1.4526 C.3     1  LIG1        0.0033
     27 O           5.8940    1.5573    0.4217 O.3     1  LIG1       -0.2260
     28 H           3.6072    3.0509    0.3568 H       1  LIG1        0.0342
     29 H           2.6021    1.2506    1.5409 H       1  LIG1        0.0316
     30 C           1.5049   -0.7158    1.4349 C.3     1  LIG1       -0.0003
     31 C          -1.8826   -1.3284    0.0556 C.3     1  LIG1       -0.0006
     32 H          -1.2139   -0.2982    1.7176 H       1  LIG1        0.0318
     33 C           1.3887    0.1336   -1.1503 C.3     1  LIG1       -0.0003
     34 H          -2.2651   -1.4901   -2.2263 H       1  LIG1        0.0319
     35 O          -5.8946   -2.6940   -0.1026 O.3     1  LIG1       -0.4523
     36 C          -6.9515   -1.8971    0.4047 C.2     1  LIG1        0.3174
     37 C          -6.9263   -0.7673    0.8085 C.3     1  LIG1        0.1212
     38 O          -8.0842   -2.3568    0.4720 O.2     1  LIG1       -0.2501
@<TRIPOS>BOND
     1     1     2    1
     2     1     6    1
     3     2     3    1
     4     2    35    1
     5     3     4    1
     6     3    25    1
     7     3    26    1
     8     4     5    1
     9     4     7    1
    10     4    34    1
    11     5     6    1
    12     5    10    1
    13     5    31    1
    14     7     8    1
    15     8     9    1
    16     9    10    1
    17     9    11    1
    18     9    30    1
    19    10    14    1
    20    10    32    1
    21    11    12    1
    22    11    15    1
    23    11    33    1
    24    12    13    1
    25    12    18    1
    26    12    29    1
    27    13    14    1
    28    15    16    1
    29    16    17    1
    30    17    18    1
    31    17    19    1
    32    17    27    1
    33    18    20    1
    34    18    28    1
    35    19    21    1
    36    20    21    1
    37    20    22    1
    38    22    23    1
    39    22    24    2
    40    35    36    1
    41    36    37    1
    42    36    38    2
