@<TRIPOS>MOLECULE
# University of Indonesia
# Herbal Database
# Metabolite Name:(E)-alpha-Santalal
M00021853.mol2
 40 42 0 0 0
SMALL
GASTEIGER
Energy = 0

@<TRIPOS>ATOM
      1 O           3.2117   -4.4306    0.6293 O.3     1  LIG1       -0.3907
      2 C          -1.5480    1.8834   -0.2716 C.3     1  LIG1       -0.0202
      3 C          -2.7254    1.2788    0.1892 C.3     1  LIG1       -0.0312
      4 C          -1.9763    2.5594    0.8436 C.3     1  LIG1       -0.0312
      5 C          -0.2820    0.9207    0.6689 C.3     1  LIG1       -0.0230
      6 C          -0.4418    1.1927   -0.6052 C.3     1  LIG1       -0.0346
      7 C          -1.8627    0.3749   -0.7710 C.3     1  LIG1       -0.0461
      8 C          -0.5107    2.7368    0.2956 C.3     1  LIG1       -0.0461
      9 C          -2.0060    2.8217   -1.7538 C.3     1  LIG1       -0.0585
     10 C          -0.7566   -0.2210    1.7040 C.3     1  LIG1       -0.0434
     11 C           1.3393    0.9237    0.8101 C.3     1  LIG1       -0.0588
     12 C          -0.3571   -1.7068    1.5328 C.3     1  LIG1       -0.0339
     13 C           1.0751   -2.1485    1.3555 C.2     1  LIG1       -0.0829
     14 C           1.5964   -2.6964    0.2270 C.2     1  LIG1       -0.0515
     15 C           3.0621   -3.0656    0.2045 C.3     1  LIG1        0.0650
     16 C           0.8125   -2.7649   -1.0655 C.3     1  LIG1       -0.0416
     17 H          -3.6787    1.6142   -0.2810 H       1  LIG1        0.0309
     18 H          -2.6019    3.4636    0.6649 H       1  LIG1        0.0309
     19 H           0.3798    0.9541   -1.3601 H       1  LIG1        0.0306
     20 H          -2.2370    0.2872   -1.8407 H       1  LIG1        0.0271
     21 H          -1.8850   -0.6986   -0.4824 H       1  LIG1        0.0271
     22 H          -0.2329    3.6963   -0.2957 H       1  LIG1        0.0271
     23 H           0.1273    3.0721    1.1947 H       1  LIG1        0.0271
     24 H          -2.9131    2.4232   -2.2632 H       1  LIG1        0.0235
     25 H          -2.2192    3.8923   -1.5290 H       1  LIG1        0.0235
     26 H          -1.1815    2.8071   -2.5044 H       1  LIG1        0.0235
     27 H          -0.3455    0.0899    2.6924 H       1  LIG1        0.0274
     28 H          -1.8504   -0.2181    1.8975 H       1  LIG1        0.0274
     29 H           1.7977    0.0728    0.2615 H       1  LIG1        0.0235
     30 H           1.8520    1.8342    0.4152 H       1  LIG1        0.0235
     31 H           1.6463    0.8471    1.8775 H       1  LIG1        0.0235
     32 H          -0.6646   -2.1979    2.4858 H       1  LIG1        0.0308
     33 H          -1.0038   -2.1981    0.7768 H       1  LIG1        0.0308
     34 H           1.7003   -2.0949    2.2466 H       1  LIG1        0.0572
     35 H           3.6556   -2.4075    0.8808 H       1  LIG1        0.0604
     36 H           3.4912   -2.9566   -0.8173 H       1  LIG1        0.0604
     37 H           1.4775   -2.9025   -1.9475 H       1  LIG1        0.0275
     38 H           0.1123   -3.6296   -1.0194 H       1  LIG1        0.0275
     39 H           0.2324   -1.8295   -1.2301 H       1  LIG1        0.0275
     40 H           2.4243   -5.0934    0.5276 H       1  LIG1        0.2098
@<TRIPOS>BOND
     1     1    15    1
     2     1    40    1
     3     2     3    1
     4     2     4    1
     5     2     5    1
     6     2     9    1
     7     3     4    1
     8     3     7    1
     9     3    17    1
    10     4     8    1
    11     4    18    1
    12     5     6    1
    13     5    10    1
    14     5    11    1
    15     6     7    1
    16     6     8    1
    17     6    19    1
    18     7    20    1
    19     7    21    1
    20     8    22    1
    21     8    23    1
    22     9    24    1
    23     9    25    1
    24     9    26    1
    25    10    12    1
    26    10    27    1
    27    10    28    1
    28    11    29    1
    29    11    30    1
    30    11    31    1
    31    12    13    1
    32    12    32    1
    33    12    33    1
    34    13    14    2
    35    13    34    1
    36    14    15    1
    37    14    16    1
    38    15    35    1
    39    15    36    1
    40    16    37    1
    41    16    38    1
    42    16    39    1
