@<TRIPOS>MOLECULE
# University of Indonesia
# Herbal Database
# Metabolite Name:(-)-Betonicine
M00001345.mol2
 13 13 0 0 0
SMALL
GASTEIGER
Energy = 0

@<TRIPOS>ATOM
      1 C          -1.3630    1.2927    0.5837 C.3     1  LIG1        0.0887
      2 C          -0.0842    1.2580   -0.0784 C.3     1  LIG1        0.0126
      3 C          -1.2303   -0.0555    0.0794 C.3     1  LIG1       -0.0457
      4 C           0.6747    0.2068   -0.7622 C.3     1  LIG1        0.0397
      5 N          -0.3469   -0.8710   -0.6719 N.4     1  LIG1        0.3956
      6 C          -0.9301   -1.9159   -0.7605 C.3     1  LIG1       -0.0953
      7 C          -0.3407   -2.0080   -1.0552 C.3     1  LIG1       -0.0953
      8 H           0.9246    0.4742   -1.8116 H       1  LIG1        0.0221
      9 C           1.8764   -0.2120   -0.0076 C.2     1  LIG1        0.3442
     10 O           2.7964    0.5739    0.1320 O.co2   1  LIG1       -0.2482
     11 O           1.9061   -1.3375    0.4697 O.co2   1  LIG1       -0.2482
     12 O          -2.2913    1.9949   -0.2044 O.3     1  LIG1       -0.2321
     13 H          -1.2423    1.3338    1.6910 H       1  LIG1        0.0619
@<TRIPOS>BOND
     1     1     3    1
     2     1     2    1
     3     1    12    1
     4     1    13    1
     5     2     4    1
     6     3     5    1
     7     4     5    1
     8     4     8    1
     9     4     9    1
    10     5     6    1
    11     5     7    1
    12     9    10   ar
    13     9    11   ar
