@<TRIPOS>MOLECULE
# University of Indonesia
# Herbal Database
# Metabolite Name:(-)-2-Norlimacine
M00025595.mol2
 46 52 0 0 0
SMALL
GASTEIGER
Energy = 0

@<TRIPOS>ATOM
      1 C          -5.9490    1.1489    0.1065 C.3     1  LIG1        0.0933
      2 N          -5.2064    0.4567   -0.8556 N.3     1  LIG1       -0.2198
      3 C          -3.9077    0.1946   -0.1327 C.3     1  LIG1        0.0664
      4 C          -3.2992    1.4562    0.6454 C.ar    1  LIG1        0.0227
      5 C          -4.1983    2.2012    1.4203 C.ar    1  LIG1       -0.0176
      6 C          -5.5828    1.9353    1.1847 C.3     1  LIG1        0.0451
      7 C          -1.8124    1.9367    0.6015 C.ar    1  LIG1        0.1838
      8 C          -1.4351    3.0773    1.3569 C.ar    1  LIG1        0.2630
      9 C          -2.4470    3.8336    2.1794 C.ar    1  LIG1        0.1801
     10 C          -3.6008    3.2745    2.1034 C.ar    1  LIG1        0.0359
     11 C          -3.0031   -0.5024   -1.0631 C.3     1  LIG1        0.0427
     12 C          -2.7290   -1.9223   -1.0554 C.ar    1  LIG1       -0.0176
     13 C          -3.0572   -2.8385   -0.1499 C.ar    1  LIG1       -0.0009
     14 C          -2.5512   -4.1613   -0.0690 C.ar    1  LIG1        0.0397
     15 C          -1.6881   -4.8036   -0.8383 C.ar    1  LIG1        0.1729
     16 C          -1.1997   -3.8370   -1.9847 C.ar    1  LIG1        0.1786
     17 C          -1.8238   -2.6443   -1.9692 C.ar    1  LIG1        0.0364
     18 O          -2.1813    4.9160    3.0462 O.3     1  LIG1       -0.4681
     19 C          -2.3502    5.6975    2.1512 C.3     1  LIG1        0.2526
     20 H          -4.1616   -0.5035    0.7046 H       1  LIG1        0.0537
     21 O          -1.1971   -6.0940   -0.5440 O.3     1  LIG1       -0.4684
     22 C          -0.1801   -5.7543   -1.0820 C.3     1  LIG1        0.2526
     23 O          -0.1269   -4.0784   -2.8890 O.3     1  LIG1       -0.4504
     24 C           2.1090   -3.2650   -2.5610 C.ar    1  LIG1        0.0372
     25 C           1.1036   -4.0556   -2.1938 C.ar    1  LIG1        0.1454
     26 C           1.3761   -4.1272   -0.7332 C.ar    1  LIG1        0.0372
     27 C           2.2155   -3.4954    0.0484 C.ar    1  LIG1       -0.0011
     28 C           3.1646   -2.4731   -0.4715 C.ar    1  LIG1       -0.0207
     29 C           3.0734   -2.5245   -1.7956 C.ar    1  LIG1       -0.0011
     30 O          -0.2737    3.4691    1.4102 O.3     1  LIG1       -0.2800
     31 O          -0.9118    1.1227   -0.1776 O.3     1  LIG1       -0.4474
     32 C           0.4511    1.5186   -0.3141 C.ar    1  LIG1        0.1788
     33 C           2.9160    0.9529    0.2058 C.ar    1  LIG1       -0.0133
     34 C           3.3316    2.1120   -0.4648 C.ar    1  LIG1       -0.0206
     35 C           2.2641    2.9217   -1.0435 C.ar    1  LIG1        0.0356
     36 C           0.9475    2.7760   -1.0540 C.ar    1  LIG1        0.1726
     37 O           0.1097    3.6336   -1.8001 O.3     1  LIG1       -0.4684
     38 C           0.3943    3.7713   -0.6429 C.3     1  LIG1        0.2526
     39 C           3.6697   -1.3505    0.2445 C.3     1  LIG1        0.0412
     40 C           3.9341   -0.0648    0.8857 C.3     1  LIG1        0.0494
     41 C           1.4544    0.8040    0.1828 C.ar    1  LIG1        0.0370
     42 N           5.4494    0.1801    0.8394 N.3     1  LIG1       -0.2733
     43 C           5.5768    1.3877    0.1293 C.3     1  LIG1        0.0768
     44 C           4.7355    2.2973   -0.4752 C.3     1  LIG1        0.0435
     45 H           3.6545   -0.1389    1.9607 H       1  LIG1        0.0522
     46 C           6.6470    0.1952    0.9074 C.3     1  LIG1        0.0896
@<TRIPOS>BOND
     1     1     2    1
     2     1     6    1
     3     2     3    1
     4     3     4    1
     5     3    11    1
     6     3    20    1
     7     4     5   ar
     8     4     7   ar
     9     5     6    1
    10     5    10   ar
    11     7     8   ar
    12     7    31    1
    13     8     9   ar
    14     8    30    1
    15     9    10   ar
    16     9    18    1
    17    11    12    1
    18    12    17   ar
    19    12    13   ar
    20    13    14   ar
    21    14    15   ar
    22    15    16   ar
    23    15    21    1
    24    16    17   ar
    25    16    23    1
    26    18    19    1
    27    21    22    1
    28    23    25    1
    29    24    25   ar
    30    24    29   ar
    31    25    26   ar
    32    26    27   ar
    33    27    28   ar
    34    28    29   ar
    35    28    39    1
    36    31    32    1
    37    32    36   ar
    38    32    41   ar
    39    33    34   ar
    40    33    41   ar
    41    33    40    1
    42    34    35   ar
    43    34    44    1
    44    35    36   ar
    45    36    37    1
    46    37    38    1
    47    39    40    1
    48    40    42    1
    49    40    45    1
    50    42    43    1
    51    42    46    1
    52    43    44    1
