@<TRIPOS>MOLECULE
# University of Indonesia
# Herbal Database
# Metabolite Name:(+)-Pinoresinol
M00007190.mol2
 28 31 0 0 0
SMALL
GASTEIGER
Energy = 0

@<TRIPOS>ATOM
      1 C          -4.4987   -3.1672   -0.3123 C.ar    1  LIG1        0.0450
      2 C          -2.1256   -2.5027   -0.2590 C.ar    1  LIG1        0.0075
      3 C          -3.3890   -2.3954    0.0923 C.ar    1  LIG1        0.0015
      4 C          -2.1326   -3.6459   -1.1926 C.ar    1  LIG1        0.0383
      5 C          -4.5192   -4.1947   -1.1488 C.ar    1  LIG1        0.2293
      6 C          -3.0681   -4.4804   -1.6948 C.ar    1  LIG1        0.1771
      7 O          -5.5397   -4.8148   -1.4263 O.3     1  LIG1       -0.2833
      8 O          -2.7263   -5.5682   -2.5270 O.3     1  LIG1       -0.4682
      9 C          -1.7651   -5.3566   -1.8403 C.3     1  LIG1        0.2526
     10 C          -0.9984   -1.6563    0.1734 C.3     1  LIG1        0.1359
     11 C          -1.1468   -0.4527    1.1366 C.3     1  LIG1        0.0389
     12 O           0.3385   -1.9126   -0.2938 O.3     1  LIG1       -0.3523
     13 C           0.2061    0.2573    1.1969 C.3     1  LIG1        0.0389
     14 C           0.7276   -0.8038    0.3902 C.3     1  LIG1        0.1410
     15 C           0.0377    1.6354    0.5153 C.3     1  LIG1        0.1359
     16 C          -1.6839    0.7573    0.5884 C.3     1  LIG1        0.1410
     17 O          -1.3077    1.9887    0.1479 O.3     1  LIG1       -0.3523
     18 H          -1.5636   -0.6973    2.1405 H       1  LIG1        0.0368
     19 H           0.6491    0.2838    2.2188 H       1  LIG1        0.0368
     20 C           1.1816    2.5284    0.2539 C.ar    1  LIG1        0.0075
     21 C           2.1560    4.6221   -0.6437 C.ar    1  LIG1        0.0450
     22 C           1.1835    3.8403   -0.3702 C.ar    1  LIG1        0.0015
     23 C           3.5614    4.3658   -0.3721 C.ar    1  LIG1        0.2293
     24 C           2.4894    2.3284    0.4944 C.ar    1  LIG1        0.0383
     25 C           3.7529    3.1104    0.2356 C.ar    1  LIG1        0.1771
     26 O           4.4656    5.1523   -0.6343 O.3     1  LIG1       -0.2833
     27 O           5.0178    2.6418    0.6553 O.3     1  LIG1       -0.4682
     28 C           5.9718    2.1354    1.1783 C.3     1  LIG1        0.2526
@<TRIPOS>BOND
     1     1     5   ar
     2     1     3   ar
     3     2     3   ar
     4     2     4   ar
     5     2    10    1
     6     4     6   ar
     7     5     6   ar
     8     5     7    1
     9     6     8    1
    10     8     9    1
    11    10    11    1
    12    10    12    1
    13    11    13    1
    14    11    16    1
    15    11    18    1
    16    12    14    1
    17    13    14    1
    18    13    15    1
    19    13    19    1
    20    15    17    1
    21    15    20    1
    22    16    17    1
    23    20    22   ar
    24    20    24   ar
    25    21    22   ar
    26    21    23   ar
    27    23    25   ar
    28    23    26    1
    29    24    25   ar
    30    25    27    1
    31    27    28    1
