@<TRIPOS>MOLECULE
# University of Indonesia
# Herbal Database
# Metabolite Name:(13Z) beta,beta-Carotene
M00023249.mol2
 96 97 0 0 0
SMALL
GASTEIGER
Energy = 0

@<TRIPOS>ATOM
      1 C          -6.9154   -7.5922   -0.4365 C.3     1  LIG1       -0.0099
      2 C           4.7065    7.9540   -0.1531 C.3     1  LIG1       -0.0099
      3 C          -7.0948   -8.7606    0.5777 C.3     1  LIG1       -0.0436
      4 C           5.3625    9.2728   -0.6562 C.3     1  LIG1       -0.0436
      5 C          -6.5046   -8.4260    1.9455 C.3     1  LIG1       -0.0486
      6 C           6.4048    9.8001    0.3278 C.3     1  LIG1       -0.0486
      7 C          -5.5149   -6.9211   -0.4267 C.2     1  LIG1       -0.0427
      8 C           5.6899    6.9173    0.4488 C.2     1  LIG1       -0.0427
      9 C          -5.0375   -8.0438    1.7778 C.3     1  LIG1       -0.0314
     10 C           7.4444    8.7125    0.5797 C.3     1  LIG1       -0.0314
     11 C          -4.6339   -7.1819    0.5990 C.2     1  LIG1       -0.0689
     12 C           6.9698    7.2872    0.7946 C.2     1  LIG1       -0.0689
     13 C          -7.2582   -8.1834   -1.8289 C.3     1  LIG1       -0.0558
     14 C          -7.9640   -6.4962   -0.1326 C.3     1  LIG1       -0.0558
     15 C           3.6637    8.2994    0.9405 C.3     1  LIG1       -0.0558
     16 C           3.9451    7.3594   -1.3670 C.3     1  LIG1       -0.0558
     17 C          -5.1139   -6.0821   -1.6107 C.2     1  LIG1       -0.0579
     18 C           5.1883    5.5046    0.5716 C.2     1  LIG1       -0.0579
     19 C          -3.1842   -6.7349    0.5864 C.3     1  LIG1       -0.0432
     20 C           7.8837    6.3836    1.6006 C.3     1  LIG1       -0.0432
     21 C          -4.6202   -4.8238   -1.6132 C.2     1  LIG1       -0.0586
     22 C           5.8782    4.4109    0.1808 C.2     1  LIG1       -0.0586
     23 C          -4.4789   -3.9263   -0.4264 C.2     1  LIG1       -0.0504
     24 C           5.3786    2.9979    0.2634 C.2     1  LIG1       -0.0504
     25 C          -5.6049   -3.8228    0.5778 C.3     1  LIG1       -0.0397
     26 C           6.4184    1.8997    0.1919 C.3     1  LIG1       -0.0397
     27 C          -3.4299   -3.0801   -0.2734 C.2     1  LIG1       -0.0588
     28 C           4.0543    2.6899    0.3361 C.2     1  LIG1       -0.0588
     29 C          -2.2328   -3.0370   -1.1653 C.2     1  LIG1       -0.0613
     30 C           3.4950    1.3106    0.4506 C.2     1  LIG1       -0.0613
     31 C          -1.2565   -2.1110   -1.0779 C.2     1  LIG1       -0.0588
     32 C           2.1857    0.9925    0.3877 C.2     1  LIG1       -0.0588
     33 C          -1.2829   -0.9706   -0.1277 C.2     1  LIG1       -0.0504
     34 C           1.0764    1.9479    0.0847 C.2     1  LIG1       -0.0504
     35 C          -2.2611    0.1475   -0.4014 C.3     1  LIG1       -0.0397
     36 C           1.1426    2.8217   -1.1475 C.3     1  LIG1       -0.0397
     37 C          -0.5478   -1.0829    1.0051 C.2     1  LIG1       -0.0588
     38 C          -0.0445    2.0398    0.8404 C.2     1  LIG1       -0.0588
     39 C          -0.4774   -0.1011    2.1217 C.2     1  LIG1       -0.0615
     40 C          -0.3135    1.2345    2.0546 C.2     1  LIG1       -0.0615
     41 H          -6.5659   -9.6706    0.2042 H       1  LIG1        0.0274
     42 H          -8.1697   -9.0322    0.7012 H       1  LIG1        0.0274
     43 H           4.5987   10.0645   -0.8407 H       1  LIG1        0.0274
     44 H           5.8858    9.0902   -1.6256 H       1  LIG1        0.0274
     45 H          -7.0632   -7.5810    2.4083 H       1  LIG1        0.0269
     46 H          -6.5930   -9.3061    2.6240 H       1  LIG1        0.0269
     47 H           6.8986   10.7069   -0.0926 H       1  LIG1        0.0269
     48 H           5.9195   10.0879    1.2880 H       1  LIG1        0.0269
     49 H          -4.4486   -8.9877    1.7022 H       1  LIG1        0.0310
     50 H          -4.7172   -7.5293    2.7135 H       1  LIG1        0.0310
     51 H           8.0664    9.0501    1.4405 H       1  LIG1        0.0310
     52 H           8.1146    8.6765   -0.3102 H       1  LIG1        0.0310
     53 H          -7.3634   -7.3888   -2.6022 H       1  LIG1        0.0238
     54 H          -8.2247   -8.7391   -1.8034 H       1  LIG1        0.0238
     55 H          -6.4595   -8.8881   -2.1565 H       1  LIG1        0.0238
     56 H          -7.9465   -5.7040   -0.9159 H       1  LIG1        0.0238
     57 H          -7.7662   -6.0117    0.8496 H       1  LIG1        0.0238
     58 H          -8.9945   -6.9201   -0.1070 H       1  LIG1        0.0238
     59 H           3.0540    7.4104    1.2186 H       1  LIG1        0.0238
     60 H           4.1612    8.6663    1.8666 H       1  LIG1        0.0238
     61 H           2.9578    9.0867    0.5885 H       1  LIG1        0.0238
     62 H           4.6666    7.0102   -2.1414 H       1  LIG1        0.0238
     63 H           3.3093    6.4926   -1.0745 H       1  LIG1        0.0238
     64 H           3.2739    8.1195   -1.8304 H       1  LIG1        0.0238
     65 H          -5.2136   -6.5571   -2.5834 H       1  LIG1        0.0621
     66 H           4.1910    5.3903    0.9808 H       1  LIG1        0.0621
     67 H          -2.7825   -6.6384   -0.4468 H       1  LIG1        0.0275
     68 H          -2.5419   -7.4742    1.1166 H       1  LIG1        0.0275
     69 H          -3.0900   -5.7598    1.1122 H       1  LIG1        0.0275
     70 H           8.5446    6.9700    2.2773 H       1  LIG1        0.0275
     71 H           7.3083    5.6807    2.2441 H       1  LIG1        0.0275
     72 H           8.5322    5.8029    0.9081 H       1  LIG1        0.0275
     73 H          -4.3020   -4.4171   -2.5719 H       1  LIG1        0.0620
     74 H           6.8740    4.5545   -0.2314 H       1  LIG1        0.0620
     75 H          -5.6626   -2.8144    1.0484 H       1  LIG1        0.0278
     76 H          -5.4659   -4.5788    1.3816 H       1  LIG1        0.0278
     77 H          -6.5781   -3.9980    0.0721 H       1  LIG1        0.0278
     78 H           6.4719    1.3774    1.1737 H       1  LIG1        0.0278
     79 H           7.4321    2.2968   -0.0413 H       1  LIG1        0.0278
     80 H           6.1551    1.1656   -0.6031 H       1  LIG1        0.0278
     81 H          -3.4344   -2.3927    0.5720 H       1  LIG1        0.0620
     82 H           3.3303    3.4949    0.3204 H       1  LIG1        0.0620
     83 H          -2.1179   -3.8101   -1.9222 H       1  LIG1        0.0618
     84 H           4.1863    0.4906    0.6334 H       1  LIG1        0.0618
     85 H          -0.3915   -2.1950   -1.7335 H       1  LIG1        0.0620
     86 H           1.9151   -0.0413    0.5813 H       1  LIG1        0.0620
     87 H          -2.6533    0.5920    0.5404 H       1  LIG1        0.0278
     88 H          -3.1336   -0.2247   -0.9845 H       1  LIG1        0.0278
     89 H          -1.7591    0.9347   -1.0055 H       1  LIG1        0.0278
     90 H           0.2053    2.7254   -1.7422 H       1  LIG1        0.0278
     91 H           1.9923    2.5237   -1.8030 H       1  LIG1        0.0278
     92 H           1.2721    3.8875   -0.8527 H       1  LIG1        0.0278
     93 H           0.0285   -1.9942    1.1633 H       1  LIG1        0.0620
     94 H          -0.8022    2.7807    0.5875 H       1  LIG1        0.0620
     95 H          -0.5621   -0.5387    3.1148 H       1  LIG1        0.0618
     96 H          -0.3781    1.7996    2.9825 H       1  LIG1        0.0618
@<TRIPOS>BOND
     1     1     3    1
     2     1     7    1
     3     1    13    1
     4     1    14    1
     5     2     4    1
     6     2     8    1
     7     2    15    1
     8     2    16    1
     9     3     5    1
    10     3    41    1
    11     3    42    1
    12     4     6    1
    13     4    43    1
    14     4    44    1
    15     5     9    1
    16     5    45    1
    17     5    46    1
    18     6    10    1
    19     6    47    1
    20     6    48    1
    21     7    11    2
    22     7    17    1
    23     8    12    2
    24     8    18    1
    25     9    11    1
    26     9    49    1
    27     9    50    1
    28    10    12    1
    29    10    51    1
    30    10    52    1
    31    11    19    1
    32    12    20    1
    33    13    53    1
    34    13    54    1
    35    13    55    1
    36    14    56    1
    37    14    57    1
    38    14    58    1
    39    15    59    1
    40    15    60    1
    41    15    61    1
    42    16    62    1
    43    16    63    1
    44    16    64    1
    45    17    21    2
    46    17    65    1
    47    18    22    2
    48    18    66    1
    49    19    67    1
    50    19    68    1
    51    19    69    1
    52    20    70    1
    53    20    71    1
    54    20    72    1
    55    21    23    1
    56    21    73    1
    57    22    24    1
    58    22    74    1
    59    23    25    1
    60    23    27    2
    61    24    26    1
    62    24    28    2
    63    25    75    1
    64    25    76    1
    65    25    77    1
    66    26    78    1
    67    26    79    1
    68    26    80    1
    69    27    29    1
    70    27    81    1
    71    28    30    1
    72    28    82    1
    73    29    31    2
    74    29    83    1
    75    30    32    2
    76    30    84    1
    77    31    33    1
    78    31    85    1
    79    32    34    1
    80    32    86    1
    81    33    35    1
    82    33    37    2
    83    34    36    1
    84    34    38    2
    85    35    87    1
    86    35    88    1
    87    35    89    1
    88    36    90    1
    89    36    91    1
    90    36    92    1
    91    37    39    1
    92    37    93    1
    93    38    40    1
    94    38    94    1
    95    39    40    2
    96    39    95    1
    97    40    96    1
