@<TRIPOS>MOLECULE
# University of Indonesia
# Herbal Database
# Metabolite Name:(+)-beta-Atlantone
M00011646.mol2
 33 33 0 0 0
SMALL
GASTEIGER
Energy = 0

@<TRIPOS>ATOM
      1 C          -3.9576   -0.1778    1.4531 C.2     1  LIG1       -0.0802
      2 C          -3.9655   -1.5140    1.2990 C.2     1  LIG1       -0.0689
      3 C          -2.6954   -2.2503    1.1188 C.3     1  LIG1       -0.0094
      4 C          -1.4044   -1.5331    1.1087 C.3     1  LIG1       -0.0235
      5 C          -1.3244   -0.0172    1.2269 C.3     1  LIG1       -0.0156
      6 C          -2.7005    0.6077    1.4373 C.3     1  LIG1       -0.0096
      7 C          -5.2395   -2.2631    1.3119 C.3     1  LIG1       -0.0277
      8 C          -0.5641    0.5466   -0.0197 C.2     1  LIG1       -0.0972
      9 C          -0.5564    1.9458   -0.0960 C.2     1  LIG1       -0.1295
     10 C           0.8509    0.0063   -0.1496 C.3     1  LIG1        0.0490
     11 C           1.4310   -0.4914   -1.4222 C.2     1  LIG1        0.1635
     12 C           2.8488   -0.9192   -1.5422 C.2     1  LIG1       -0.0193
     13 C           3.9433   -0.3901   -0.9395 C.2     1  LIG1       -0.0656
     14 C           5.2609   -1.0417   -1.1251 C.3     1  LIG1       -0.0276
     15 C           3.9198    0.8433   -0.1149 C.3     1  LIG1       -0.0276
     16 O           0.7125   -0.6095   -2.4092 O.2     1  LIG1       -0.2920
     17 H          -4.8926    0.3630    1.5946 H       1  LIG1        0.0575
     18 H          -2.7014   -3.3317    0.9956 H       1  LIG1        0.0354
     19 H          -0.4926   -2.1196    1.0129 H       1  LIG1        0.0315
     20 H          -0.7299    0.2093    2.1419 H       1  LIG1        0.0349
     21 H          -2.7821    1.6810    1.5942 H       1  LIG1        0.0355
     22 H          -6.1891   -1.7494    1.4496 H       1  LIG1        0.0313
     23 H          -5.2450   -3.3430    1.1825 H       1  LIG1        0.0313
     24 H          -1.1384    0.1786   -0.9050 H       1  LIG1        0.0532
     25 H           0.0535    2.2938   -0.9638 H       1  LIG1        0.0458
     26 H          -0.1310    2.3896    0.8344 H       1  LIG1        0.0458
     27 H          -1.5823    2.3488   -0.2575 H       1  LIG1        0.0458
     28 H           1.4242   -0.1502    0.7605 H       1  LIG1        0.0430
     29 H           2.9948   -1.7649   -2.2139 H       1  LIG1        0.0652
     30 H           6.1554   -0.6232   -0.6676 H       1  LIG1        0.0313
     31 H           5.3614   -1.9486   -1.7190 H       1  LIG1        0.0313
     32 H           4.8113    1.1580    0.4235 H       1  LIG1        0.0313
     33 H           3.0408    1.4770   -0.0480 H       1  LIG1        0.0313
@<TRIPOS>BOND
     1     1     2    2
     2     1     6    1
     3     1    17    1
     4     2     3    1
     5     2     7    1
     6     3     4    1
     7     3    18    1
     8     4     5    1
     9     4    19    1
    10     5     6    1
    11     5     8    1
    12     5    20    1
    13     6    21    1
    14     7    22    1
    15     7    23    1
    16     8     9    2
    17     8    10    1
    18     8    24    1
    19     9    25    1
    20     9    26    1
    21     9    27    1
    22    10    11    1
    23    10    28    1
    24    11    12    1
    25    11    16    2
    26    12    13    2
    27    12    29    1
    28    13    14    1
    29    13    15    1
    30    14    30    1
    31    14    31    1
    32    15    32    1
    33    15    33    1
