@<TRIPOS>MOLECULE
# University of Indonesia
# Herbal Database
# Metabolite Name:(-)-Carvomenthone
M00010901.mol2
 26 26 0 0 0
SMALL
GASTEIGER
Energy = 0

@<TRIPOS>ATOM
      1 C          -1.2196    1.4652   -0.0809 C.3     1  LIG1       -0.0247
      2 C          -1.2940    0.1804   -0.8338 C.3     1  LIG1       -0.0302
      3 C          -0.1254   -0.7611   -0.5613 C.3     1  LIG1       -0.0251
      4 C           1.1351    0.0514   -0.8328 C.3     1  LIG1        0.0309
      5 C           1.2220    1.3360   -0.0857 C.2     1  LIG1        0.1404
      6 C           0.0458    2.2687   -0.3276 C.3     1  LIG1        0.0184
      7 C           0.0647    2.7802   -1.7793 C.3     1  LIG1       -0.0554
      8 O           2.1385    1.5714    0.6934 O.2     1  LIG1       -0.2968
      9 C          -0.1524   -1.2784    0.9124 C.3     1  LIG1       -0.0430
     10 C           1.0569   -2.1769    1.2305 C.3     1  LIG1       -0.0624
     11 C          -1.4465   -2.0516    1.2264 C.3     1  LIG1       -0.0624
     12 H          -1.9886    1.7738    0.6231 H       1  LIG1        0.0313
     13 H          -2.0877   -0.0434   -1.5425 H       1  LIG1        0.0310
     14 H          -0.1731   -1.6575   -1.2224 H       1  LIG1        0.0313
     15 H           1.8966   -0.2592   -1.5429 H       1  LIG1        0.0387
     16 H           0.0944    3.1690    0.3275 H       1  LIG1        0.0378
     17 H          -0.8036    3.4565   -1.9517 H       1  LIG1        0.0236
     18 H           0.0174    1.9516   -2.5228 H       1  LIG1        0.0236
     19 H           0.9977    3.3613   -1.9610 H       1  LIG1        0.0236
     20 H          -0.1090   -0.4156    1.6190 H       1  LIG1        0.0298
     21 H           1.0095   -2.5369    2.2839 H       1  LIG1        0.0232
     22 H           1.0798   -3.0599    0.5517 H       1  LIG1        0.0232
     23 H           2.0089   -1.6113    1.1143 H       1  LIG1        0.0232
     24 H          -2.3373   -1.3950    1.1051 H       1  LIG1        0.0232
     25 H          -1.5548   -2.9294    0.5489 H       1  LIG1        0.0232
     26 H          -1.4380   -2.4127    2.2804 H       1  LIG1        0.0232
@<TRIPOS>BOND
     1     1     2    1
     2     1     6    1
     3     1    12    1
     4     2     3    1
     5     2    13    1
     6     3     4    1
     7     3     9    1
     8     3    14    1
     9     4     5    1
    10     4    15    1
    11     5     6    1
    12     5     8    2
    13     6     7    1
    14     6    16    1
    15     7    17    1
    16     7    18    1
    17     7    19    1
    18     9    10    1
    19     9    11    1
    20     9    20    1
    21    10    21    1
    22    10    22    1
    23    10    23    1
    24    11    24    1
    25    11    25    1
    26    11    26    1
