@<TRIPOS>MOLECULE
# University of Indonesia
# Herbal Database
# Metabolite Name:(-)-Oblongine
M00027609.mol2
 51 51 0 0 0
SMALL
GASTEIGER
Energy = 0

@<TRIPOS>ATOM
      1 C          -3.9422   -2.3144   -0.0721 C.ar    1  LIG1        0.0351
      2 N          -3.4336   -0.9533   -0.1515 N.ar    1  LIG1       -0.2504
      3 C          -4.6438   -2.6755    0.9954 C.ar    1  LIG1       -0.0045
      4 C          -3.8106   -0.3441    0.9582 C.ar    1  LIG1        0.0984
      5 S          -4.7729   -1.3188    2.1028 S.2     1  LIG1       -0.0787
      6 C          -3.4581    1.1017    1.2422 C.3     1  LIG1        0.0715
      7 N          -2.7297    1.7247    0.0895 N.am    1  LIG1       -0.2942
      8 C          -2.7197    1.2033    2.5858 C.3     1  LIG1       -0.0403
      9 C          -3.5579    2.1578   -1.0569 C.3     1  LIG1        0.0039
     10 C          -1.4829    2.3100    0.1473 C.2     1  LIG1        0.2362
     11 O          -1.3598    3.5328    0.1315 O.2     1  LIG1       -0.2736
     12 C          -0.2130    1.4631    0.1686 C.3     1  LIG1        0.0999
     13 C           0.6767    1.8027    1.3913 C.3     1  LIG1       -0.0195
     14 N          -0.5192    0.0179    0.1428 N.am    1  LIG1       -0.3037
     15 C          -0.0063   -0.9859   -0.6219 C.2     1  LIG1        0.2178
     16 O          -0.4657   -2.1181   -0.5383 O.2     1  LIG1       -0.2755
     17 C           1.1365   -0.7742   -1.5529 C.3     1  LIG1        0.0534
     18 C           1.6770   -1.8607   -2.4608 C.3     1  LIG1        0.0148
     19 C           2.2051   -1.3015   -3.8052 C.3     1  LIG1        0.1939
     20 CL          3.6314   -0.2005   -3.6160 Cl      1  LIG1       -0.0831
     21 CL          2.6880   -2.6268   -4.9375 Cl      1  LIG1       -0.0831
     22 CL          0.9170   -0.3715   -4.6720 Cl      1  LIG1       -0.0831
     23 C           2.7255   -2.6659   -1.6762 C.3     1  LIG1       -0.0578
     24 C           2.0877    1.1373    1.4213 C.3     1  LIG1        0.0052
     25 C           3.2313    2.0312    0.8592 C.3     1  LIG1        0.1932
     26 CL          3.5904    3.4691    1.8988 Cl      1  LIG1       -0.0831
     27 CL          2.8998    2.6681   -0.7991 Cl      1  LIG1       -0.0831
     28 CL          4.7703    1.0977    0.6696 Cl      1  LIG1       -0.0831
     29 C           2.4023    0.6231    2.8415 C.3     1  LIG1       -0.0585
     30 H          -3.7481   -3.0222   -0.8757 H       1  LIG1        0.0835
     31 H          -5.0642   -3.6683    1.1402 H       1  LIG1        0.0709
     32 H          -4.4237    1.6447    1.3760 H       1  LIG1        0.0568
     33 H          -3.4134    0.9620    3.4232 H       1  LIG1        0.0251
     34 H          -2.3434    2.2384    2.7491 H       1  LIG1        0.0251
     35 H          -1.8730    0.4837    2.6266 H       1  LIG1        0.0251
     36 H          -3.9481    3.1876   -0.8872 H       1  LIG1        0.0429
     37 H          -4.4290    1.4805   -1.2104 H       1  LIG1        0.0429
     38 H          -2.9693    2.1529   -2.0038 H       1  LIG1        0.0429
     39 H           0.3092    1.7755   -0.7583 H       1  LIG1        0.0595
     40 H           0.1053    1.5229    2.3025 H       1  LIG1        0.0292
     41 H           0.8044    2.9084    1.4505 H       1  LIG1        0.0292
     42 H          -1.2953   -0.2808    0.6968 H       1  LIG1        0.1495
     43 H           1.5345    0.2230   -1.6817 H       1  LIG1        0.0406
     44 H           0.8416   -2.5562   -2.7108 H       1  LIG1        0.0346
     45 H           3.5809   -2.0203   -1.3716 H       1  LIG1        0.0234
     46 H           3.1154   -3.5098   -2.2882 H       1  LIG1        0.0234
     47 H           2.2680   -3.0993   -0.7570 H       1  LIG1        0.0234
     48 H           2.0678    0.2223    0.7921 H       1  LIG1        0.0340
     49 H           2.4035    1.4603    3.5760 H       1  LIG1        0.0234
     50 H           1.6339   -0.1199    3.1570 H       1  LIG1        0.0234
     51 H           3.3914    0.1143    2.8791 H       1  LIG1        0.0234
@<TRIPOS>BOND
     1     1     3   ar
     2     1     2   ar
     3     1    30    1
     4     2     4   ar
     5     3     5   ar
     6     3    31    1
     7     4     5   ar
     8     4     6    1
     9     6     7    1
    10     6     8    1
    11     6    32    1
    12     7     9    1
    13     7    10   am
    14     8    33    1
    15     8    34    1
    16     8    35    1
    17     9    36    1
    18     9    37    1
    19     9    38    1
    20    10    11    2
    21    10    12    1
    22    12    13    1
    23    12    14    1
    24    12    39    1
    25    13    24    1
    26    13    40    1
    27    13    41    1
    28    14    15   am
    29    14    42    1
    30    15    16    2
    31    15    17    1
    32    17    18    1
    33    17    43    1
    34    18    19    1
    35    18    23    1
    36    18    44    1
    37    19    20    1
    38    19    21    1
    39    19    22    1
    40    23    45    1
    41    23    46    1
    42    23    47    1
    43    24    25    1
    44    24    29    1
    45    24    48    1
    46    25    26    1
    47    25    27    1
    48    25    28    1
    49    29    49    1
    50    29    50    1
    51    29    51    1
