@<TRIPOS>MOLECULE
# University of Indonesia
# Herbal Database
# Metabolite Name:(-)-Epicatechin
M00000956.mol2
 23 25 0 0 0
SMALL
GASTEIGER
Energy = 0

@<TRIPOS>ATOM
      1 C          -4.1348    0.7357    0.2543 C.ar    1  LIG1        0.2019
      2 C          -3.9974   -0.5755   -0.3045 C.ar    1  LIG1        0.0839
      3 C          -3.0666   -1.4975   -0.3819 C.ar    1  LIG1        0.1979
      4 C          -1.7751   -1.0322    0.3186 C.ar    1  LIG1        0.0531
      5 C          -1.7331    0.2152    0.9330 C.ar    1  LIG1        0.1406
      6 C          -2.9737    0.9823    0.8076 C.ar    1  LIG1        0.0788
      7 C          -0.5766   -1.8536    0.3596 C.3     1  LIG1        0.0626
      8 C           0.5183   -1.5408    1.3114 C.3     1  LIG1        0.1462
      9 C           0.7123   -0.0026    1.3999 C.3     1  LIG1        0.1563
     10 O          -0.5582    0.6872    1.5777 O.3     1  LIG1       -0.4803
     11 C           1.4733    0.6987    0.3069 C.ar    1  LIG1        0.0153
     12 C           1.5815    0.3025   -0.9683 C.ar    1  LIG1        0.0442
     13 C           2.4870    0.7088   -2.1036 C.ar    1  LIG1        0.2340
     14 C           3.4313    1.7207   -1.8091 C.ar    1  LIG1        0.2342
     15 C           3.3080    2.1552   -0.4237 C.ar    1  LIG1        0.0452
     16 C           2.4861    1.7212    0.4505 C.ar    1  LIG1        0.0023
     17 O          -5.1075    1.4783    0.2515 O.3     1  LIG1       -0.2864
     18 O          -3.2385   -2.5730   -0.9421 O.3     1  LIG1       -0.2867
     19 O           1.6176   -2.3248    0.9133 O.3     1  LIG1       -0.2260
     20 O           4.2469    2.1777   -2.6050 O.3     1  LIG1       -0.2831
     21 O           2.3977    0.1857   -3.2102 O.3     1  LIG1       -0.2832
     22 H           1.3106    0.1676    2.3251 H       1  LIG1        0.0813
     23 H           0.0727   -1.7865    2.3041 H       1  LIG1        0.0678
@<TRIPOS>BOND
     1     1     2   ar
     2     1     6   ar
     3     1    17    1
     4     2     3   ar
     5     3     4   ar
     6     3    18    1
     7     4     5   ar
     8     4     7    1
     9     5     6   ar
    10     5    10    1
    11     7     8    1
    12     8     9    1
    13     8    19    1
    14     8    23    1
    15     9    10    1
    16     9    11    1
    17     9    22    1
    18    11    12   ar
    19    11    16   ar
    20    12    13   ar
    21    13    14   ar
    22    13    21    1
    23    14    15   ar
    24    14    20    1
    25    15    16   ar
