@<TRIPOS>MOLECULE
# University of Indonesia
# Herbal Database
# Metabolite Name:(+)-Coreximine
M00026097.mol2
 25 28 0 0 0
SMALL
GASTEIGER
Energy = 0

@<TRIPOS>ATOM
      1 C          -4.2581    0.2448   -0.7048 C.ar    1  LIG1        0.2289
      2 C          -4.4321   -1.2802   -0.7406 C.ar    1  LIG1        0.1771
      3 C          -3.3805   -1.9405   -0.2780 C.ar    1  LIG1        0.0370
      4 C          -2.1021   -1.4640    0.2417 C.ar    1  LIG1       -0.0068
      5 C          -1.9144   -0.1067    0.2799 C.ar    1  LIG1       -0.0201
      6 C          -3.0772    0.6218   -0.2290 C.ar    1  LIG1        0.0407
      7 C          -0.9805   -2.1608    0.7324 C.3     1  LIG1        0.0989
      8 N           0.2996   -1.9369    1.2693 N.3     1  LIG1       -0.2708
      9 C           0.5403   -0.3689    1.1986 C.3     1  LIG1        0.0497
     10 C          -0.6606    0.4779    0.7944 C.3     1  LIG1        0.0410
     11 C           1.2281   -2.4721    0.3613 C.3     1  LIG1        0.0770
     12 C           2.2359   -2.0035   -0.4503 C.3     1  LIG1        0.0435
     13 C           2.5532   -0.6274   -0.5011 C.ar    1  LIG1       -0.0206
     14 C           1.7385    0.1851    0.3143 C.ar    1  LIG1       -0.0132
     15 C           3.5966    0.0837   -1.2387 C.ar    1  LIG1        0.0357
     16 C           3.9829    1.3488   -1.3334 C.ar    1  LIG1        0.1770
     17 C           3.1145    2.2537   -0.4279 C.ar    1  LIG1        0.2290
     18 C           2.1686    1.5859    0.2234 C.ar    1  LIG1        0.0416
     19 O           3.2644    3.4632   -0.2983 O.3     1  LIG1       -0.2833
     20 O           5.1256    1.7463   -2.0604 O.3     1  LIG1       -0.4682
     21 C           5.2701    2.5994   -1.2288 C.3     1  LIG1        0.2526
     22 O          -5.6270   -1.9420   -1.0972 O.3     1  LIG1       -0.4682
     23 C          -5.8396   -2.9701   -0.5158 C.3     1  LIG1        0.2526
     24 O          -5.1048    1.0551   -1.0641 O.3     1  LIG1       -0.2833
     25 H           0.7955   -0.0748    2.2420 H       1  LIG1        0.0522
@<TRIPOS>BOND
     1     1     2   ar
     2     1     6   ar
     3     1    24    1
     4     2     3   ar
     5     2    22    1
     6     3     4   ar
     7     4     5   ar
     8     4     7    1
     9     5     6   ar
    10     5    10    1
    11     7     8    1
    12     8     9    1
    13     8    11    1
    14     9    10    1
    15     9    14    1
    16     9    25    1
    17    11    12    1
    18    12    13    1
    19    13    14   ar
    20    13    15   ar
    21    14    18   ar
    22    15    16   ar
    23    16    17   ar
    24    16    20    1
    25    17    18   ar
    26    17    19    1
    27    20    21    1
    28    22    23    1
