@<TRIPOS>MOLECULE
# University of Indonesia
# Herbal Database
# Metabolite Name:(E)-beta-Santalal
M00021857.mol2
 38 39 0 0 0
SMALL
GASTEIGER
Energy = 0

@<TRIPOS>ATOM
      1 C           1.2326   -1.0035    0.1449 C.3     1  LIG1       -0.0079
      2 C           2.2057   -0.3965   -0.9276 C.3     1  LIG1       -0.0314
      3 C           3.6461   -0.1563   -0.4075 C.3     1  LIG1       -0.0489
      4 C           1.0403    0.2293    0.9981 C.2     1  LIG1       -0.0673
      5 C           3.4513    0.9667    0.6303 C.3     1  LIG1       -0.0462
      6 C           1.9619    1.3049    0.4735 C.3     1  LIG1       -0.0193
      7 C           1.7788    1.0725   -1.0148 C.3     1  LIG1       -0.0429
      8 C           0.1405    0.4047    1.9771 C.2     1  LIG1       -0.0987
      9 C           1.8880   -2.1107    1.0165 C.3     1  LIG1       -0.0556
     10 C          -0.0586   -1.6479   -0.4645 C.3     1  LIG1       -0.0402
     11 C          -1.0420   -0.8143   -1.2991 C.3     1  LIG1       -0.0333
     12 C          -1.8600    0.2541   -0.6082 C.2     1  LIG1       -0.0780
     13 C          -3.1065    0.0824   -0.0941 C.2     1  LIG1       -0.0152
     14 C          -3.7894    1.2593    0.5214 C.2     1  LIG1        0.1457
     15 O          -4.9204    1.1542    0.9854 O.2     1  LIG1       -0.2961
     16 C          -3.7732   -1.2785   -0.0358 C.3     1  LIG1       -0.0370
     17 H           2.1886   -0.9285   -1.9066 H       1  LIG1        0.0309
     18 H           4.1257   -1.0643    0.0193 H       1  LIG1        0.0268
     19 H           4.2992    0.1982   -1.2408 H       1  LIG1        0.0268
     20 H           3.6764    0.6203    1.6652 H       1  LIG1        0.0271
     21 H           4.0891    1.8489    0.3878 H       1  LIG1        0.0271
     22 H           1.6981    2.3409    0.7889 H       1  LIG1        0.0346
     23 H           2.4408    1.7083   -1.6554 H       1  LIG1        0.0274
     24 H           0.7395    1.2562   -1.3523 H       1  LIG1        0.0274
     25 H           0.0652    1.3596    2.4922 H       1  LIG1        0.0535
     26 H          -0.5229   -0.4063    2.2681 H       1  LIG1        0.0535
     27 H           2.2955   -2.9196    0.3680 H       1  LIG1        0.0238
     28 H           2.7121   -1.7193    1.6541 H       1  LIG1        0.0238
     29 H           1.1486   -2.5622    1.7175 H       1  LIG1        0.0238
     30 H          -0.6617   -2.0943    0.3595 H       1  LIG1        0.0277
     31 H           0.2697   -2.4948   -1.1127 H       1  LIG1        0.0277
     32 H          -1.7458   -1.5294   -1.7841 H       1  LIG1        0.0308
     33 H          -0.4968   -0.3601   -2.1542 H       1  LIG1        0.0308
     34 H          -1.4467    1.2599   -0.6326 H       1  LIG1        0.0576
     35 H          -3.2656    2.2133    0.5442 H       1  LIG1        0.1078
     36 H          -4.2525   -1.4903   -1.0177 H       1  LIG1        0.0278
     37 H          -3.0417   -2.0844    0.1921 H       1  LIG1        0.0278
     38 H          -4.5563   -1.3195    0.7542 H       1  LIG1        0.0278
@<TRIPOS>BOND
     1     1     2    1
     2     1     4    1
     3     1     9    1
     4     1    10    1
     5     2     3    1
     6     2     7    1
     7     2    17    1
     8     3     5    1
     9     3    18    1
    10     3    19    1
    11     4     6    1
    12     4     8    2
    13     5     6    1
    14     5    20    1
    15     5    21    1
    16     6     7    1
    17     6    22    1
    18     7    23    1
    19     7    24    1
    20     8    25    1
    21     8    26    1
    22     9    27    1
    23     9    28    1
    24     9    29    1
    25    10    11    1
    26    10    30    1
    27    10    31    1
    28    11    12    1
    29    11    32    1
    30    11    33    1
    31    12    13    2
    32    12    34    1
    33    13    14    1
    34    13    16    1
    35    14    15    2
    36    14    35    1
    37    16    36    1
    38    16    37    1
    39    16    38    1
