@<TRIPOS>MOLECULE
# University of Indonesia
# Herbal Database
# Metabolite Name: (2-exo,3-endo)-2,3-dimethyl-Bicyclo[2.2.1]heptan-2-ol
M00011055.mol2
 22 23 0 0 0
SMALL
GASTEIGER
Energy = 0

@<TRIPOS>ATOM
      1 C          -1.6354    0.9086    1.2255 C.2     1  LIG1       -0.0817
      2 C          -1.9721   -0.5079    1.1578 C.2     1  LIG1       -0.0841
      3 C          -1.2721   -0.9691   -0.0915 C.3     1  LIG1       -0.0170
      4 C           0.2679   -0.9787    0.0069 C.3     1  LIG1       -0.0049
      5 C           0.6568    0.5401    0.0727 C.3     1  LIG1        0.1138
      6 C          -0.7636    1.1618    0.0236 C.3     1  LIG1        0.0100
      7 C          -1.4769    0.2557   -0.9691 C.3     1  LIG1       -0.0374
      8 O           1.5380    0.9674   -0.9430 O.3     1  LIG1       -0.2267
      9 C           1.3884    0.9849    1.3217 C.3     1  LIG1       -0.0172
     10 C           0.7926   -1.9030    1.1180 C.3     1  LIG1       -0.0591
     11 H          -2.0253    1.6449    1.9230 H       1  LIG1        0.0573
     12 H          -2.6567   -1.0678    1.7892 H       1  LIG1        0.0572
     13 H          -1.7083   -1.8956   -0.5304 H       1  LIG1        0.0347
     14 H           0.6683   -1.3915   -0.9506 H       1  LIG1        0.0333
     15 H          -0.7655    2.2287   -0.2962 H       1  LIG1        0.0372
     16 H          -2.5515    0.5195   -1.1424 H       1  LIG1        0.0278
     17 H          -0.9685    0.1923   -1.9634 H       1  LIG1        0.0278
     18 H           2.3545    1.4856    1.2689 H       1  LIG1        0.0295
     19 H           0.9560    0.8109    2.3040 H       1  LIG1        0.0295
     20 H           0.4271   -1.5815    2.1195 H       1  LIG1        0.0233
     21 H           0.4474   -2.9463    0.9357 H       1  LIG1        0.0233
     22 H           1.9062   -1.8953    1.1218 H       1  LIG1        0.0233
@<TRIPOS>BOND
     1     1     2    2
     2     1     6    1
     3     1    11    1
     4     2     3    1
     5     2    12    1
     6     3     4    1
     7     3     7    1
     8     3    13    1
     9     4     5    1
    10     4    10    1
    11     4    14    1
    12     5     6    1
    13     5     8    1
    14     5     9    1
    15     6     7    1
    16     6    15    1
    17     7    16    1
    18     7    17    1
    19     9    18    1
    20     9    19    1
    21    10    20    1
    22    10    21    1
    23    10    22    1
