@<TRIPOS>MOLECULE
# University of Indonesia
# Herbal Database
# Metabolite Name:(-)-N-Methylcoclaurine
M00025619.mol2
 37 39 0 0 0
SMALL
GASTEIGER
Energy = 0

@<TRIPOS>ATOM
      1 C          -2.8520   -1.2266   -2.2199 C.ar    1  LIG1        0.2206
      2 C          -3.4432   -1.8587   -0.9880 C.ar    1  LIG1        0.1668
      3 C          -2.7202   -1.8988    0.1531 C.ar    1  LIG1       -0.0123
      4 C          -1.3355   -1.3543    0.1829 C.ar    1  LIG1       -0.0337
      5 C          -0.8399   -0.6846   -0.8991 C.ar    1  LIG1       -0.0223
      6 C          -1.6161   -0.6826   -2.1745 C.ar    1  LIG1       -0.0063
      7 C          -0.4231   -1.6371    1.3267 C.3     1  LIG1        0.0099
      8 C           1.0342   -1.5060    1.0456 C.3     1  LIG1        0.0346
      9 N           1.4540   -0.9477   -0.1489 N.3     1  LIG1       -0.2886
     10 C           0.5076    0.0206   -0.7728 C.3     1  LIG1        0.0438
     11 O          -3.4858   -1.2029   -3.2712 O.3     1  LIG1       -0.2840
     12 O          -4.7820   -2.3485   -0.9777 O.3     1  LIG1       -0.4913
     13 C          -4.8185   -3.7043   -1.4862 C.3     1  LIG1        0.0790
     14 C           2.6789   -1.2329   -0.6848 C.3     1  LIG1        0.0127
     15 C           0.3682    1.2436    0.1260 C.3     1  LIG1        0.0124
     16 C           1.4758    2.1759    0.4775 C.ar    1  LIG1       -0.0416
     17 C           2.6819    2.1898   -0.1456 C.ar    1  LIG1       -0.0546
     18 C           3.7444    3.1497    0.2690 C.ar    1  LIG1       -0.0147
     19 C           3.5120    4.0252    1.2681 C.ar    1  LIG1        0.1790
     20 C           2.1923    4.0311    1.9544 C.ar    1  LIG1       -0.0147
     21 C           1.2307    3.1605    1.5819 C.ar    1  LIG1       -0.0546
     22 O           4.3834    4.8167    1.6121 O.3     1  LIG1       -0.2879
     23 H          -3.1486   -2.3450    1.0484 H       1  LIG1        0.0658
     24 H          -1.1896   -0.2247   -3.0656 H       1  LIG1        0.0660
     25 H          -0.7866   -1.9944    2.2869 H       1  LIG1        0.0371
     26 H           1.8219   -1.8164    1.7319 H       1  LIG1        0.0484
     27 H           0.8384    0.4030   -1.7666 H       1  LIG1        0.0518
     28 H          -5.8676   -4.0723   -1.4399 H       1  LIG1        0.0660
     29 H          -4.1839   -4.3820   -0.8684 H       1  LIG1        0.0660
     30 H          -4.4855   -3.7397   -2.5498 H       1  LIG1        0.0660
     31 H           2.8872   -0.8334   -1.6757 H       1  LIG1        0.0439
     32 H           3.3518   -1.8575   -0.0982 H       1  LIG1        0.0439
     33 H          -0.6107    1.4615    0.5536 H       1  LIG1        0.0374
     34 H           2.8977    1.5109   -0.9636 H       1  LIG1        0.0622
     35 H           4.7065    3.1393   -0.2404 H       1  LIG1        0.0656
     36 H           2.0058    4.7404    2.7583 H       1  LIG1        0.0656
     37 H           0.2701    3.1767    2.0945 H       1  LIG1        0.0622
@<TRIPOS>BOND
     1     1     2   ar
     2     1     6   ar
     3     1    11    1
     4     2     3   ar
     5     2    12    1
     6     3     4   ar
     7     3    23    1
     8     4     5   ar
     9     4     7    1
    10     5     6   ar
    11     5    10    1
    12     6    24    1
    13     7     8    1
    14     7    25    1
    15     8     9    1
    16     8    26    1
    17     9    10    1
    18     9    14    1
    19    10    15    1
    20    10    27    1
    21    12    13    1
    22    13    28    1
    23    13    29    1
    24    13    30    1
    25    14    31    1
    26    14    32    1
    27    15    16    1
    28    15    33    1
    29    16    21   ar
    30    16    17   ar
    31    17    18   ar
    32    17    34    1
    33    18    19   ar
    34    18    35    1
    35    19    20   ar
    36    19    22    1
    37    20    21   ar
    38    20    36    1
    39    21    37    1
