@<TRIPOS>MOLECULE
# University of Indonesia
# Herbal Database
# Metabolite Name:(-)-Dihydrocubebin
M00002599.mol2
 28 31 0 0 0
SMALL
GASTEIGER
Energy = 0

@<TRIPOS>ATOM
      1 C          -3.7887    0.2282    1.1338 C.ar    1  LIG1        0.0359
      2 C          -2.7405   -1.6351    0.4845 C.ar    1  LIG1       -0.0010
      3 C          -2.5714   -0.3185    1.1120 C.ar    1  LIG1       -0.0192
      4 C          -3.8490   -2.1277    0.0518 C.ar    1  LIG1        0.0399
      5 C          -5.1214   -0.2251    0.6763 C.ar    1  LIG1        0.1761
      6 C          -5.1590   -1.4880    0.0951 C.ar    1  LIG1        0.1764
      7 O          -6.3757    0.4417    0.7435 O.3     1  LIG1       -0.4346
      8 O          -6.4350   -1.9316   -0.3469 O.3     1  LIG1       -0.4346
      9 C          -6.7916   -0.7093    0.1414 C.3     1  LIG1        0.4294
     10 C          -1.3647    0.2924    1.5959 C.3     1  LIG1        0.0248
     11 C          -0.1210    0.9218    2.0665 C.3     1  LIG1        0.0151
     12 C           0.5784   -0.0416    2.9300 C.3     1  LIG1        0.1782
     13 C           0.7914    1.4189    0.9174 C.3     1  LIG1        0.0151
     14 C           0.2029    2.5645    0.1990 C.3     1  LIG1        0.1782
     15 C           1.1266    0.3548   -0.0576 C.3     1  LIG1        0.0248
     16 C           2.4874    0.0862   -0.4537 C.ar    1  LIG1       -0.0192
     17 C           4.6461    0.6359   -1.7777 C.ar    1  LIG1        0.1761
     18 C           3.2539    0.7980   -1.2825 C.ar    1  LIG1        0.0359
     19 C           5.3263   -0.4857   -1.2969 C.ar    1  LIG1        0.1764
     20 C           3.3261   -1.0253   -0.0468 C.ar    1  LIG1       -0.0010
     21 C           4.5320   -1.3036   -0.3814 C.ar    1  LIG1        0.0399
     22 O           6.6580   -0.6451   -1.7675 O.3     1  LIG1       -0.4346
     23 O           5.3912    1.4551   -2.6693 O.3     1  LIG1       -0.4346
     24 O          -0.9870    2.5057   -0.4507 O.3     1  LIG1       -0.2208
     25 H          -0.4044    1.7905    2.7050 H       1  LIG1        0.0345
     26 H           1.7328    1.8051    1.3755 H       1  LIG1        0.0345
     27 C           6.3398    0.5058   -2.4261 C.3     1  LIG1        0.4294
     28 O           1.6350    0.3155    3.7019 O.3     1  LIG1       -0.2208
@<TRIPOS>BOND
     1     1     5   ar
     2     1     3   ar
     3     2     3   ar
     4     2     4   ar
     5     3    10    1
     6     4     6   ar
     7     5     6   ar
     8     5     7    1
     9     6     8    1
    10     7     9    1
    11     8     9    1
    12    10    11    1
    13    11    13    1
    14    11    12    1
    15    11    25    1
    16    12    28    1
    17    13    14    1
    18    13    15    1
    19    13    26    1
    20    14    24    1
    21    15    16    1
    22    16    18   ar
    23    16    20   ar
    24    17    18   ar
    25    17    19   ar
    26    17    23    1
    27    19    21   ar
    28    19    22    1
    29    20    21   ar
    30    22    27    1
    31    23    27    1
