Xanthotoxin.mol
VEGA ZZ 2.3.2

 24 26  0  0  0  0  0  0  0  0  1 V2000
   -1.1023    1.1464    0.1316 C   0  0  0  0  0  0  0  0  0  0  0  0
   -1.2662   -0.2631    0.3890 C   0  0  0  0  0  0  0  0  0  0  0  0
   -0.2017   -1.0856    0.4285 C   0  0  0  0  0  0  0  0  0  0  0  0
    1.1618   -0.4822    0.2466 C   0  0  0  0  0  0  0  0  0  0  0  0
    1.2864    0.8618    0.0106 C   0  0  0  0  0  0  0  0  0  0  0  0
    0.0797    1.7388   -0.0584 C   0  0  0  0  0  0  0  0  0  0  0  0
    2.2946   -1.3610    0.3207 O   0  0  0  0  0  0  0  0  0  0  0  0
    3.5736   -0.7460    0.1368 C   0  0  0  0  0  0  0  0  0  0  0  0
    3.7193    0.7018   -0.1139 C   0  0  0  0  0  0  0  0  0  0  0  0
    2.6245    1.4649   -0.1739 C   0  0  0  0  0  0  0  0  0  0  0  0
   -2.4405    1.6736    0.1561 C   0  0  0  0  0  0  0  0  0  0  0  0
   -2.6323   -0.6166    0.5739 O   0  0  0  0  0  0  0  0  0  0  0  0
   -3.2704    0.6587    0.4091 C   0  0  0  0  0  0  0  0  0  0  0  0
    4.5801   -1.4418    0.1870 O   0  0  0  0  0  0  0  0  0  0  0  0
   -0.3547   -2.4570    0.7788 O   0  0  0  0  0  0  0  0  0  0  0  0
   -0.5039   -3.2442   -0.4277 C   0  0  0  0  0  0  0  0  0  0  0  0
    0.1501    2.8093   -0.2441 H   0  0  0  0  0  0  0  0  0  0  0  0
    4.7067    1.1388   -0.2479 H   0  0  0  0  0  0  0  0  0  0  0  0
    2.7226    2.5337   -0.3586 H   0  0  0  0  0  0  0  0  0  0  0  0
   -2.7463    2.7067    0.0050 H   0  0  0  0  0  0  0  0  0  0  0  0
   -4.3486    0.7891    0.4839 H   0  0  0  0  0  0  0  0  0  0  0  0
   -1.4206   -2.9449   -0.9883 H   0  0  0  0  0  0  0  0  0  0  0  0
   -0.6081   -4.3141   -0.1406 H   0  0  0  0  0  0  0  0  0  0  0  0
    0.3926   -3.1471   -1.0841 H   0  0  0  0  0  0  0  0  0  0  0  0
  1  2  1  0  0  0  0
  1  6  2  0  0  0  0
  1 11  1  0  0  0  0
  2  3  2  0  0  0  0
  2 12  1  0  0  0  0
  3  4  1  0  0  0  0
  3 15  1  0  0  0  0
  4  5  2  0  0  0  0
  4  7  1  0  0  0  0
  5  6  1  0  0  0  0
  5 10  1  0  0  0  0
  6 17  1  0  0  0  0
  7  8  1  0  0  0  0
  8  9  1  0  0  0  0
  8 14  2  0  0  0  0
  9 10  2  0  0  0  0
  9 18  1  0  0  0  0
 10 19  1  0  0  0  0
 11 13  2  0  0  0  0
 11 20  1  0  0  0  0
 12 13  1  0  0  0  0
 13 21  1  0  0  0  0
 15 16  1  0  0  0  0
 16 22  1  0  0  0  0
 16 23  1  0  0  0  0
 16 24  1  0  0  0  0
M  END
